10133
  SciTegic09142310043D

 67 70  0  0  0  0            999 V2000
   12.4120    5.3596   -8.9970 O   0  0  0  1  0  0
   10.8376    4.3894  -15.7939 O   0  0  0  1  0  0
   16.1180   -0.2096   -7.3138 O   0  5  0  1  0  0
   16.5591   -1.9941   -6.2346 O   0  0  0  1  0  0
   12.8322    2.7817   -8.4326 C   0  0  2  1  0  0
   12.7238    1.2868   -8.2275 C   0  0  1  1  0  0
   12.8168    3.1193   -9.8871 C   0  0  1  1  0  0
   11.5036    2.6088  -10.5170 C   0  0  1  1  0  0
   11.6152    2.7124  -12.0449 C   0  0  2  1  0  0
   12.9477    1.2831   -6.7274 C   0  0  2  1  0  0
   12.4071    3.9938  -12.4380 C   0  0  2  1  0  0
   11.3237    0.8540   -8.6224 C   0  0  0  1  0  0
   11.0492    1.1833  -10.0807 C   0  0  0  1  0  0
   13.0319    4.6230  -10.0429 C   0  0  1  1  0  0
   14.0569    3.2463   -7.6610 C   0  0  0  1  0  0
   14.1216    2.2699   -6.5032 C   0  0  0  1  0  0
   12.4799    5.0937  -11.3669 C   0  0  0  1  0  0
   10.1865    2.7564  -12.6124 C   0  0  0  1  0  0
   13.7910    0.4983   -9.0312 C   0  0  0  1  0  0
   13.0688   -0.1126   -6.1225 C   0  0  1  1  0  0
   11.8240    4.6274  -13.6814 C   0  0  0  1  0  0
   12.3664    1.4865  -12.6393 C   0  0  0  1  0  0
   10.2154    2.7595  -14.1345 C   0  0  0  1  0  0
   11.3441    3.6524  -14.7017 C   0  0  1  1  0  0
   13.8860   -0.0063   -4.8548 C   0  0  0  1  0  0
   11.6951   -0.7706   -5.8856 C   0  0  0  1  0  0
   15.4397   -0.2430   -5.0044 C   0  0  0  1  0  0
   16.0625   -0.8718   -6.2860 C   0  0  0  1  0  0
   12.6822    6.2723   -9.0173 H   0  0
   11.4936    4.9893  -16.1282 H   0  0
   11.9638    3.2577   -7.9690 H   0  0
   13.6601    2.6369  -10.3785 H   0  0
   10.7302    3.2954  -10.1658 H   0  0
   12.0903    1.7610   -6.2486 H   0  0
   13.4379    3.7054  -12.6527 H   0  0
   10.6340    1.3885   -7.9935 H   0  0
   11.1676   -0.2089   -8.4510 H   0  0
   11.5417    0.3973  -10.6422 H   0  0
    9.9868    1.0527  -10.2812 H   0  0
   14.1178    4.7824  -10.0111 H   0  0
   13.9548    4.2777   -7.3242 H   0  0
   14.9568    3.1706   -8.2728 H   0  0
   15.0899    1.7853   -6.5390 H   0  0
   14.0505    2.7885   -5.5470 H   0  0
   13.1539    5.8871  -11.6829 H   0  0
   11.4818    5.5084  -11.2132 H   0  0
    9.5930    1.9081  -12.2719 H   0  0
    9.6723    3.6478  -12.2492 H   0  0
   14.7835    0.9172   -8.8869 H   0  0
   13.6170    0.5234  -10.1003 H   0  0
   13.8251   -0.5609   -8.7858 H   0  0
   13.6127   -0.7377   -6.8047 H   0  0
   10.9102    5.1685  -13.4346 H   0  0
   12.6072    5.2361  -14.1234 H   0  0
   11.7392    0.5964  -12.6807 H   0  0
   13.2631    1.2469  -12.0727 H   0  0
   12.7112    1.6417  -13.6562 H   0  0
   10.3488    1.7306  -14.4663 H   0  0
    9.2404    3.0669  -14.5060 H   0  0
   12.1939    3.0494  -15.0337 H   0  0
   13.5889    0.9617   -4.4791 H   0  0
   13.4900   -0.5910   -4.0276 H   0  0
   11.4323   -1.4294   -6.7124 H   0  0
   10.8951   -0.0403   -5.7737 H   0  0
   11.6975   -1.3892   -4.9918 H   0  0
   15.7479   -0.8723   -4.1713 H   0  0
   15.9773    0.6972   -4.9053 H   0  0
  1 14  1  0
  2 24  1  0
  3 28  1  0
  4 28  2  0
  5  6  1  0
  5  7  1  0
  5 15  1  0
  6 10  1  0
  6 12  1  0
  6 19  1  0
  7  8  1  0
  7 14  1  0
  8  9  1  0
  8 13  1  0
  9 11  1  0
  9 18  1  0
  9 22  1  0
 10 16  1  0
 10 20  1  0
 11 17  1  0
 11 21  1  0
 12 13  1  0
 14 17  1  0
 15 16  1  0
 18 23  1  0
 20 25  1  0
 20 26  1  0
 21 24  1  0
 23 24  1  0
 25 27  1  0
 27 28  1  0
  1 29  1  0
  2 30  1  0
  5 31  1  0
  7 32  1  0
  8 33  1  0
 10 34  1  0
 11 35  1  0
 12 36  1  0
 12 37  1  0
 13 38  1  0
 13 39  1  0
 14 40  1  0
 15 41  1  0
 15 42  1  0
 16 43  1  0
 16 44  1  0
 17 45  1  0
 17 46  1  0
 18 47  1  0
 18 48  1  0
 19 49  1  0
 19 50  1  0
 19 51  1  0
 20 52  1  0
 21 53  1  0
 21 54  1  0
 22 55  1  0
 22 56  1  0
 22 57  1  0
 23 58  1  0
 23 59  1  0
 24 60  1  0
 25 61  1  0
 25 62  1  0
 26 63  1  0
 26 64  1  0
 26 65  1  0
 27 66  1  0
 27 67  1  0
M  CHG  1   3  -1
M  END
> <Name>
10133

> <Binding Energy>
-25.8657

> <Ligand Energy>
78.4454

> <Protein Energy>
-7801.1566

> <Complex Energy>
-7748.577

> <Complex Entropy>
-31.4851

> <Protein Entropy>
-31.4717

> <Ligand Entropy>
-20.044

> <Entropic Energy>
20.0305

> <AbsoluteEnergy>
49.5432

> <ConfNumber>
13

> <Ionization pH>
7.5

> <IonizationIndex>
1

> <MOL_NUMBER>
2

> <NumberOfIonizations>
1

> <NumberOfStereoisomers>
1

> <NumberOfTautomers>
1

> <PUBCHEM_ATOM_DEF_STEREO_COUNT>
10

> <PUBCHEM_ATOM_UDEF_STEREO_COUNT>
0

> <PUBCHEM_BOND_DEF_STEREO_COUNT>
0

> <PUBCHEM_BOND_UDEF_STEREO_COUNT>
0

> <PUBCHEM_CACTVS_TAUTO_COUNT>
1

> <PUBCHEM_COMPONENT_COUNT>
1

> <PUBCHEM_COMPOUND_CID>
10133

> <PUBCHEM_CONFORMER_DIVERSEORDER>
1
5
3
4
2

> <PUBCHEM_CONFORMER_ID>
279500000000

> <PUBCHEM_CONFORMER_RMSD>
0.8

> <PUBCHEM_COORDINATE_TYPE>
2
5
10

> <PUBCHEM_EFFECTIVE_ROTOR_COUNT>
6.2

> <PUBCHEM_FEATURE_SELFOVERLAP>
61.077

> <PUBCHEM_HEAVY_ATOM_COUNT>
28

> <PUBCHEM_ISOTOPIC_ATOM_COUNT>
0

> <PUBCHEM_MMFF94_ENERGY>
98.3711

> <PUBCHEM_MMFF94_PARTIAL_CHARGES>
11
1 -0.68
14 0.28
2 -0.68
24 0.28
27 0.06
28 0.66
3 -0.65
4 -0.57
61 0.4
65 0.4
68 0.5

> <PUBCHEM_PHARMACOPHORE_FEATURES>
12
1 1 acceptor
1 1 donor
1 2 acceptor
1 2 donor
1 26 hydrophobe
1 3 acceptor
1 4 acceptor
3 3 4 28 anion
5 5 6 10 15 16 rings
6 5 6 7 8 12 13 rings
6 7 8 9 11 14 17 rings
6 9 11 18 21 23 24 rings

> <PUBCHEM_SHAPE_FINGERPRINT>
10675989 125 16825575996399212613
11089746 13 11095882653218022170
11135609 12 18113905944363332721
12166972 35 17676492774114792876
12236239 1 17748825198893703508
12422481 6 17917714608119298557
12596602 18 17458340827941685736
12633257 1 17489305330380158329
12788726 201 18057880247892638216
13009979 54 18041002847016188125
13140716 1 18196369445095455147
13224815 77 18336262440175454533
13583140 156 18336815425662356797
13782708 43 16733255781987481274
13914758 101 13398638221106775274
14341114 176 18341891917976569768
14787075 74 18186517701025726176
14856354 85 18336831982450540439
14955137 171 18131071554298621256
15183329 4 18411412909019904334
15537594 2 18343297059424511446
15685185 35 17244723492047349196
16110190 28 18271806873199299985
17349148 13 17749107794324115408
17844677 252 17418086625249616992
1813 80 17386005014728457414
18608769 82 18334580182610487946
18927931 339 18409443696257686631
21033648 29 16773213142600101938
21150785 3 15502378945862797010
21267235 1 18410856576830240751
21859007 373 13181923366664697712
22182313 1 18059299746930421109
23081809 10 14908170985123800248
23402539 116 18200861946289631308
23522609 53 18194710204692854544
23559900 14 18129082559138727104
23569914 152 11968107609434555034
23569943 247 17773877494003226286
2838139 119 12247682656075574267
3004659 81 18335698301133426498
335352 9 18411129230730414845
34797466 226 18341904017574448724
350125 39 18409730677045074744
392239 28 18410016572075799035
4015057 19 13695881332409705102
5104073 3 18268419153905685826
59755656 215 18272647914096090622
999808 66 18260836998449795650

> <PUBCHEM_SHAPE_MULTIPOLES>
552.75
15.16
2.23
1.55
19.34
0.58
-0.21
-4.97
2.83
-1.4
0.16
-1.46
-0.27
0.43

> <PUBCHEM_SHAPE_SELFOVERLAP>
1158.27

> <PUBCHEM_SHAPE_VOLUME>
310.5

> <RelativeEnergy>
13.0443

> <StereoisomerIndex>
1

> <TautomerIndex>
1

> <POSE_NUMBER>
1

> <LibDockScore>
92.0556

> <HotSpots>
16.41,-1.33,-4.66,P,61,4
9.21,3.67,-12.86,A,26,18
11.21,4.87,-14.65,A,18,21

> <-In-Situ Starting Energy>
-10002.0807

> <-In-Situ Final Energy>
-82.9055137

> <In-Situ Gradient>
0.0009590499136

$$$$
10331
  SciTegic09142310043D

 17 18  0  0  0  0            999 V2000
    8.2461    1.1667    1.8291 O   0  0  0  1  0  0
    7.9140    4.1762    3.5505 O   0  5  0  1  0  0
    9.6458    2.9044    3.3828 O   0  0  0  1  0  0
    6.4114    1.6177    0.6026 C   0  0  0  1  0  0
    7.3406    0.6185    0.9844 C   0  0  0  1  0  0
    6.7325    2.7809    1.3907 C   0  0  0  1  0  0
    7.8577    2.4306    2.1391 C   0  0  0  1  0  0
    5.4558    1.3518   -0.3403 C   0  0  0  1  0  0
    7.2176   -0.6473    0.4996 C   0  0  0  1  0  0
    5.3463    0.0618   -0.8596 C   0  0  0  1  0  0
    6.2018   -0.9399   -0.3981 C   0  0  0  1  0  0
    8.5051    3.2149    3.0668 C   0  0  0  1  0  0
    6.2491    3.7421    1.4334 H   0  0
    4.8041    2.1443   -0.6766 H   0  0
    7.9050   -1.4190    0.8166 H   0  0
    4.6167   -0.1765   -1.6204 H   0  0
    6.0965   -1.9616   -0.7211 H   0  0
  1  5  1  0
  1  7  1  0
  2 12  1  0
  3 12  2  0
  4  5  1  0
  4  6  1  0
  4  8  2  0
  5  9  2  0
  6  7  2  0
  7 12  1  0
  8 10  1  0
  9 11  1  0
 10 11  2  0
  6 13  1  0
  8 14  1  0
  9 15  1  0
 10 16  1  0
 11 17  1  0
M  CHG  1   2  -1
M  END
> <Name>
10331

> <Binding Energy>
-55.12

> <Ligand Energy>
5.525

> <Protein Energy>
-7801.1566

> <Complex Energy>
-7850.7516

> <Complex Entropy>
-31.476

> <Protein Entropy>
-31.4717

> <Ligand Entropy>
-17.5485

> <Entropic Energy>
17.5442

> <AbsoluteEnergy>
85.0656

> <ConfNumber>
1

> <Ionization pH>
7.5

> <IonizationIndex>
1

> <MOL_NUMBER>
4

> <NumberOfIonizations>
1

> <NumberOfStereoisomers>
1

> <NumberOfTautomers>
1

> <PUBCHEM_ATOM_DEF_STEREO_COUNT>
0

> <PUBCHEM_ATOM_UDEF_STEREO_COUNT>
0

> <PUBCHEM_BOND_DEF_STEREO_COUNT>
0

> <PUBCHEM_BOND_UDEF_STEREO_COUNT>
0

> <PUBCHEM_CACTVS_TAUTO_COUNT>
1

> <PUBCHEM_COMPONENT_COUNT>
1

> <PUBCHEM_COMPOUND_CID>
10331

> <PUBCHEM_CONFORMER_DIVERSEORDER>
1
2

> <PUBCHEM_CONFORMER_ID>
0000285B00000001

> <PUBCHEM_CONFORMER_RMSD>
0.4

> <PUBCHEM_COORDINATE_TYPE>
2
5
10

> <PUBCHEM_EFFECTIVE_ROTOR_COUNT>
1

> <PUBCHEM_FEATURE_SELFOVERLAP>
30.609

> <PUBCHEM_HEAVY_ATOM_COUNT>
12

> <PUBCHEM_ISOTOPIC_ATOM_COUNT>
0

> <PUBCHEM_MMFF94_ENERGY>
18.896

> <PUBCHEM_MMFF94_PARTIAL_CHARGES>
17
1 -0.28
10 -0.15
11 -0.15
12 0.81
13 0.15
14 0.15
15 0.15
16 0.15
17 0.15
18 0.5
2 -0.65
3 -0.57
5 0.14
6 -0.15
7 0.05
8 -0.15
9 -0.15

> <PUBCHEM_PHARMACOPHORE_FEATURES>
6
1 1 acceptor
1 2 acceptor
1 3 acceptor
3 2 3 12 anion
5 1 4 5 6 7 rings
6 4 5 8 9 10 11 rings

> <PUBCHEM_SHAPE_FINGERPRINT>
10219947 1 18342739611112816334
10608611 8 18409162220933121405
11471102 20 18410288090669347276
11769659 78 18410287004037476379
12032990 46 18410581694665460590
12932764 1 17385998434437567827
13380535 76 18336826502335709234
14144814 61 18412545405273697121
14325111 11 18410855477403125925
16945 1 18410573981199388192
17844478 74 18040438784850463189
18186145 218 18113898234490945287
193761 8 17546164099945252646
20201158 50 18408323267748912202
20645477 70 18411976928072380167
20871998 22 18054510201867297174
21501925 9 18410563011552389970
23402655 69 18269260293465579725
23463225 33 18409166593341223300
23552423 10 18333452036297994902
2748010 2 18410293639751145974
3248919 1 17385729131329641233
528886 8 18411414038153048546

> <PUBCHEM_SHAPE_MULTIPOLES>
229.35
5.52
1.5
0.59
2.37
0
0
0.25
0
-0.29
0
-0.06
-0.01
0

> <PUBCHEM_SHAPE_SELFOVERLAP>
506.94

> <PUBCHEM_SHAPE_VOLUME>
125

> <RelativeEnergy>
0

> <StereoisomerIndex>
1

> <TautomerIndex>
1

> <POSE_NUMBER>
1

> <LibDockScore>
73.4727

> <HotSpots>
6.61,-0.93,-0.06,A,65,9
4.81,0.47,-1.05,A,56,10
9.21,2.67,2.54,A,84,12

> <-In-Situ Starting Energy>
-21.578284

> <-In-Situ Final Energy>
22.0978161

> <In-Situ Gradient>
0.0008796866186

$$$$
10403
  SciTegic09142310043D

 23 23  0  0  0  0            999 V2000
    6.8945    1.6613    2.9209 O   0  0  0  1  0  0
    6.6896    0.4876   -1.5984 C   0  0  0  1  0  0
    6.6146    2.0209   -1.6397 C   0  0  0  1  0  0
    5.9205   -0.1433   -0.4269 C   0  0  0  1  0  0
    7.4277    2.7811   -0.5763 C   0  0  0  1  0  0
    6.8299   -0.6781    0.6870 C   0  0  0  1  0  0
    6.8183    2.7818    0.8397 C   0  0  0  1  0  0
    7.8473    0.3447    1.1983 C   0  0  0  1  0  0
    7.1705    1.6000    1.7618 C   0  0  0  1  0  0
    6.2471    0.1157   -2.5241 H   0  0
    7.7263    0.1516   -1.6253 H   0  0
    6.9814    2.3360   -2.6169 H   0  0
    5.5724    2.3391   -1.6045 H   0  0
    5.3309   -0.9773   -0.8052 H   0  0
    5.1987    0.5648   -0.0225 H   0  0
    7.4451    3.8222   -0.9009 H   0  0
    8.4744    2.4788   -0.5764 H   0  0
    7.3674   -1.5546    0.3211 H   0  0
    6.2220   -1.0256    1.5223 H   0  0
    5.7337    2.8394    0.7786 H   0  0
    7.1378    3.6815    1.3651 H   0  0
    8.5497    0.6177    0.4195 H   0  0
    8.4302   -0.1132    1.9941 H   0  0
  1  9  2  0
  2  3  1  0
  2  4  1  0
  3  5  1  0
  4  6  1  0
  5  7  1  0
  6  8  1  0
  7  9  1  0
  8  9  1  0
  2 10  1  0
  2 11  1  0
  3 12  1  0
  3 13  1  0
  4 14  1  0
  4 15  1  0
  5 16  1  0
  5 17  1  0
  6 18  1  0
  6 19  1  0
  7 20  1  0
  7 21  1  0
  8 22  1  0
  8 23  1  0
M  END
> <Name>
10403

> <Binding Energy>
-26.0624

> <Ligand Energy>
10.1142

> <Protein Energy>
-7801.1566

> <Complex Energy>
-7817.1048

> <Complex Entropy>
-31.475

> <Protein Entropy>
-31.4717

> <Ligand Entropy>
-16.9436

> <Entropic Energy>
16.9403

> <AbsoluteEnergy>
8.30279

> <ConfNumber>
4

> <IonizationIndex>
1

> <MOL_NUMBER>
5

> <NumberOfIonizations>
1

> <NumberOfStereoisomers>
1

> <NumberOfTautomers>
1

> <PUBCHEM_ATOM_DEF_STEREO_COUNT>
0

> <PUBCHEM_ATOM_UDEF_STEREO_COUNT>
0

> <PUBCHEM_BOND_DEF_STEREO_COUNT>
0

> <PUBCHEM_BOND_UDEF_STEREO_COUNT>
0

> <PUBCHEM_CACTVS_TAUTO_COUNT>
2

> <PUBCHEM_COMPONENT_COUNT>
1

> <PUBCHEM_COMPOUND_CID>
10403

> <PUBCHEM_CONFORMER_DIVERSEORDER>
1
8
6
9
7
2
4
5
3

> <PUBCHEM_CONFORMER_ID>
000028A300000001

> <PUBCHEM_CONFORMER_RMSD>
0.4

> <PUBCHEM_COORDINATE_TYPE>
2
5
10

> <PUBCHEM_EFFECTIVE_ROTOR_COUNT>
1.4

> <PUBCHEM_FEATURE_SELFOVERLAP>
5.074

> <PUBCHEM_HEAVY_ATOM_COUNT>
9

> <PUBCHEM_ISOTOPIC_ATOM_COUNT>
0

> <PUBCHEM_MMFF94_ENERGY>
11.718

> <PUBCHEM_MMFF94_PARTIAL_CHARGES>
4
1 -0.57
7 0.06
8 0.06
9 0.45

> <PUBCHEM_PHARMACOPHORE_FEATURES>
1
1 1 acceptor

> <PUBCHEM_SHAPE_FINGERPRINT>
12423570 1 15301993672933302054
16945 1 18270686500989122835
18185500 45 17186159210897144047
20653085 51 13901341663313411312
21040471 1 18338804390203663293
21922407 69 15575866999758714469
241688 4 18339094699970481739
2748010 2 18194128408448428887
5084963 1 18058745708971088158
54338 74 18047446083843893498
66348 1 17978239253021327607

> <PUBCHEM_SHAPE_MULTIPOLES>
179.35
2.25
2.08
0.96
0.01
0.27
0.07
-0.18
0.51
0.24
-0.4
-0.14
-0.04
0.24

> <PUBCHEM_SHAPE_SELFOVERLAP>
343.186

> <PUBCHEM_SHAPE_VOLUME>
108

> <RelativeEnergy>
3.0779

> <StereoisomerIndex>
1

> <TautomerIndex>
1

> <POSE_NUMBER>
1

> <LibDockScore>
59.3698

> <HotSpots>
7.81,2.67,0.94,A,73,3
6.01,1.67,2.54,A,83,7
7.01,-0.53,1.54,A,78,8

> <-In-Situ Starting Energy>
-128.567083

> <-In-Situ Final Energy>
20.835392

> <In-Situ Gradient>
0.00098130728

$$$$
10518
  SciTegic09142310043D

 35 36  0  0  0  0            999 V2000
    4.3084    1.9977    1.5333 O   0  0  0  1  0  0
    9.0620    1.3490    1.6666 O   0  0  0  1  0  0
    7.1276    4.8275    3.8577 O   0  0  0  1  0  0
    5.7507    3.3432    2.6598 N   0  0  0  1  0  0
    8.0450    3.0370    2.7085 N   0  5  0  1  0  0
    6.6681    1.4218    1.4036 C   0  0  2  1  0  0
    6.6752    1.5048   -0.1172 C   0  0  0  1  0  0
    5.7798    0.4759   -0.7829 C   0  0  0  1  0  0
    5.3186    0.7785   -2.1993 C   0  0  0  1  0  0
    6.5409   -0.0386    1.9293 C   0  0  0  1  0  0
    6.3545    0.6557   -3.3178 C   0  0  0  1  0  0
    7.7564    1.1074   -2.9287 C   0  0  0  1  0  0
    7.3792    2.4460   -0.7848 C   0  0  0  1  0  0
    7.8150    2.4640   -2.2214 C   0  0  0  1  0  0
    5.4612    2.2754    1.8755 C   0  0  0  1  0  0
    8.0336    1.9370    1.9411 C   0  0  0  1  0  0
    7.6135   -1.0218    1.4312 C   0  0  0  1  0  0
    6.9699    3.7423    3.0754 C   0  0  0  1  0  0
    6.3366    5.0615    4.3392 H   0  0
    4.8651    0.3857   -0.2057 H   0  0
    6.2406   -0.5098   -0.7702 H   0  0
    4.5083    0.0834   -2.4204 H   0  0
    4.8883    1.7790   -2.2014 H   0  0
    6.5166   -0.0662    3.0192 H   0  0
    5.5803   -0.4416    1.6325 H   0  0
    6.4080   -0.3760   -3.6587 H   0  0
    6.0042    1.2232   -4.1789 H   0  0
    8.3696    1.1409   -3.8291 H   0  0
    8.2090    0.3511   -2.2869 H   0  0
    7.8459    3.2495   -0.2443 H   0  0
    8.8365    2.8308   -2.2557 H   0  0
    7.2318    3.2052   -2.7523 H   0  0
    8.4859   -0.9630    2.0713 H   0  0
    7.9574   -0.8096    0.4200 H   0  0
    7.2617   -2.0521    1.4406 H   0  0
  1 15  2  0
  2 16  2  0
  3 18  1  0
  4 15  1  0
  4 18  2  0
  5 16  1  0
  5 18  1  0
  6  7  1  0
  6 10  1  0
  6 15  1  0
  6 16  1  0
  7  8  1  0
  7 13  2  0
  8  9  1  0
  9 11  1  0
 10 17  1  0
 11 12  1  0
 12 14  1  0
 13 14  1  0
  3 19  1  0
  8 20  1  0
  8 21  1  0
  9 22  1  0
  9 23  1  0
 10 24  1  0
 10 25  1  0
 11 26  1  0
 11 27  1  0
 12 28  1  0
 12 29  1  0
 13 30  1  0
 14 31  1  0
 14 32  1  0
 17 33  1  0
 17 34  1  0
 17 35  1  0
M  CHG  1   5  -1
M  END
> <Name>
10518

> <Binding Energy>
-22.1342

> <Ligand Energy>
63.9548

> <Protein Energy>
-7801.1566

> <Complex Energy>
-7759.3361

> <Complex Entropy>
-31.4783

> <Protein Entropy>
-31.4717

> <Ligand Entropy>
-18.7417

> <Entropic Energy>
18.7351

> <AbsoluteEnergy>
32.7299

> <ConfNumber>
17

> <Ionization pH>
7.48_D

> <IonizationIndex>
2

> <MOL_NUMBER>
19

> <NumberOfIonizations>
2

> <NumberOfStereoisomers>
2

> <NumberOfTautomers>
3

> <PUBCHEM_ATOM_DEF_STEREO_COUNT>
0

> <PUBCHEM_ATOM_UDEF_STEREO_COUNT>
0

> <PUBCHEM_BOND_DEF_STEREO_COUNT>
0

> <PUBCHEM_BOND_UDEF_STEREO_COUNT>
0

> <PUBCHEM_CACTVS_TAUTO_COUNT>
5

> <PUBCHEM_COMPONENT_COUNT>
1

> <PUBCHEM_COMPOUND_CID>
10518

> <PUBCHEM_CONFORMER_DIVERSEORDER>
1
12
4
3
10
9
11
6
7
8
5
2

> <PUBCHEM_CONFORMER_ID>
291600000001

> <PUBCHEM_CONFORMER_RMSD>
0.6

> <PUBCHEM_COORDINATE_TYPE>
2
5
10

> <PUBCHEM_EFFECTIVE_ROTOR_COUNT>
3.6

> <PUBCHEM_FEATURE_SELFOVERLAP>
40.638

> <PUBCHEM_HEAVY_ATOM_COUNT>
18

> <PUBCHEM_ISOTOPIC_ATOM_COUNT>
0

> <PUBCHEM_MMFF94_ENERGY>
39.6217

> <PUBCHEM_MMFF94_PARTIAL_CHARGES>
16
1 -0.57
13 -0.29
14 0.14
15 0.57
16 0.57
18 0.69
2 -0.57
29 0.15
3 -0.57
35 0.37
36 0.37
4 -0.49
5 -0.49
6 0.26
7 -0.28
8 0.14

> <PUBCHEM_PHARMACOPHORE_FEATURES>
8
1 1 acceptor
1 17 hydrophobe
1 2 acceptor
1 3 acceptor
1 4 donor
1 5 donor
6 4 5 6 15 16 18 rings
7 7 8 9 11 12 13 14 rings

> <PUBCHEM_SHAPE_FINGERPRINT>
10863032 1 18342459274286673340
10922049 32 17910389825238936688
11471102 22 15626215771851475762
11578080 2 17534030057389268028
12326174 3 14996268232637784513
12423570 1 15098352441717171208
12592029 89 18057038223901946072
13134695 92 16773217518660190377
14648413 74 18342733057056195097
15219456 202 18129660940666653161
16752209 62 18262502707859386935
16945 1 18193264209246233985
17804303 29 18411983516514944487
18186145 218 17748819740022185175
20233049 118 18264765450685714125
20600515 1 17489316243580794866
21501502 16 17916577786485071215
22802520 49 18265061395507335603
232386 152 18412826867418396543
23419403 2 16106892676375991075
23559900 14 18199181785939815950
2748010 2 18337094761729575205
3060560 45 16225764155298837559
528886 8 16660653903528269832
568465 68 17131833140333213759
5845 1 12363416798774521728
7364860 26 18270396212692093568
74978 22 18342454859492666751
81228 2 17271184015755966664

> <PUBCHEM_SHAPE_MULTIPOLES>
342.86
5.43
2.31
1.45
3.82
0.33
-0.09
-1.91
0.3
-1.13
-0.2
-0.81
0.24
0.34

> <PUBCHEM_SHAPE_SELFOVERLAP>
719.422

> <PUBCHEM_SHAPE_VOLUME>
189.8

> <RelativeEnergy>
7.65307

> <StereoisomerIndex>
2

> <TautomerIndex>
3

> <POSE_NUMBER>
1

> <LibDockScore>
100.08

> <HotSpots>
7.21,1.27,-2.85,A,46,12
7.01,-0.53,1.54,A,78,17
6.61,4.27,3.15,A,86,18

> <-In-Situ Starting Energy>
-165.45724

> <-In-Situ Final Energy>
6.4390181

> <In-Situ Gradient>
0.0007764192686

$$$$
10680
  SciTegic09142310043D

 27 29  0  0  0  0            999 V2000
   11.7610    3.7555  -12.1942 O   0  0  0  1  0  0
   11.1688   -0.1089  -11.3341 O   0  0  0  1  0  0
   10.2379    1.9038  -12.0696 C   0  0  0  1  0  0
   12.7856    3.0003  -11.7225 C   0  0  0  1  0  0
   10.5010    3.2300  -12.3905 C   0  0  0  1  0  0
   14.0532    3.7057  -11.5710 C   0  0  0  1  0  0
   11.3250    1.0533  -11.5743 C   0  0  0  1  0  0
   12.6482    1.6956  -11.4084 C   0  0  0  1  0  0
    8.9541    1.4068  -12.2278 C   0  0  0  1  0  0
    9.4999    4.0408  -12.9039 C   0  0  0  1  0  0
   14.0341    5.0154  -11.1082 C   0  0  0  1  0  0
   15.2587    3.1175  -11.9430 C   0  0  0  1  0  0
    7.9575    2.2097  -12.7715 C   0  0  0  1  0  0
    8.2273    3.5268  -13.1036 C   0  0  0  1  0  0
   15.2110    5.7395  -11.0278 C   0  0  0  1  0  0
   16.4346    3.8547  -11.8769 C   0  0  0  1  0  0
   16.4039    5.1700  -11.4341 C   0  0  0  1  0  0
   13.4665    1.1081  -11.0371 H   0  0
    8.7385    0.3939  -11.9193 H   0  0
    9.7164    5.0692  -13.1474 H   0  0
   13.1046    5.4776  -10.8087 H   0  0
   15.2876    2.1025  -12.3106 H   0  0
    6.9566    1.8262  -12.8989 H   0  0
    7.4412    4.1580  -13.4932 H   0  0
   15.2062    6.7491  -10.6588 H   0  0
   17.3781    3.4175  -12.1735 H   0  0
   17.3036    5.7644  -11.4088 H   0  0
  1  4  1  0
  1  5  1  0
  2  7  2  0
  3  5  2  0
  3  7  1  0
  3  9  1  0
  4  6  1  0
  4  8  2  0
  5 10  1  0
  6 11  2  0
  6 12  1  0
  7  8  1  0
  9 13  2  0
 10 14  2  0
 11 15  1  0
 12 16  2  0
 13 14  1  0
 15 17  2  0
 16 17  1  0
  8 18  1  0
  9 19  1  0
 10 20  1  0
 11 21  1  0
 12 22  1  0
 13 23  1  0
 14 24  1  0
 15 25  1  0
 16 26  1  0
 17 27  1  0
M  END
> <Name>
10680

> <Binding Energy>
-24.9033

> <Ligand Energy>
4.468

> <Protein Energy>
-7801.1566

> <Complex Energy>
-7821.592

> <Complex Entropy>
-31.4796

> <Protein Entropy>
-31.4717

> <Ligand Entropy>
-18.5781

> <Entropic Energy>
18.5702

> <AbsoluteEnergy>
31.5631

> <ConfNumber>
1

> <IonizationIndex>
1

> <MOL_NUMBER>
21

> <NumberOfIonizations>
1

> <NumberOfStereoisomers>
1

> <NumberOfTautomers>
1

> <PUBCHEM_ATOM_DEF_STEREO_COUNT>
0

> <PUBCHEM_ATOM_UDEF_STEREO_COUNT>
0

> <PUBCHEM_BOND_DEF_STEREO_COUNT>
0

> <PUBCHEM_BOND_UDEF_STEREO_COUNT>
0

> <PUBCHEM_CACTVS_TAUTO_COUNT>
1

> <PUBCHEM_COMPONENT_COUNT>
1

> <PUBCHEM_COMPOUND_CID>
10680

> <PUBCHEM_CONFORMER_DIVERSEORDER>
1

> <PUBCHEM_CONFORMER_ID>
000029B800000001

> <PUBCHEM_CONFORMER_RMSD>
0.6

> <PUBCHEM_COORDINATE_TYPE>
2
5
10

> <PUBCHEM_EFFECTIVE_ROTOR_COUNT>
1

> <PUBCHEM_FEATURE_SELFOVERLAP>
25.4

> <PUBCHEM_HEAVY_ATOM_COUNT>
17

> <PUBCHEM_ISOTOPIC_ATOM_COUNT>
0

> <PUBCHEM_MMFF94_ENERGY>
52.1033

> <PUBCHEM_MMFF94_PARTIAL_CHARGES>
27
1 -0.16
10 -0.15
11 -0.15
12 -0.15
13 -0.15
14 -0.15
15 -0.15
16 -0.15
17 -0.15
18 0.15
19 0.15
2 -0.57
20 0.15
21 0.15
22 0.15
23 0.15
24 0.15
25 0.15
26 0.15
27 0.15
3 0.09
4 0.05
5 0.08
6 0.03
7 0.47
8 -0.14
9 -0.15

> <PUBCHEM_PHARMACOPHORE_FEATURES>
5
1 1 acceptor
1 2 acceptor
6 1 3 4 5 7 8 rings
6 3 5 9 10 13 14 rings
6 6 11 12 15 16 17 rings

> <PUBCHEM_SHAPE_FINGERPRINT>
10411042 1 17763463215937963551
10608611 8 18342454889420612688
10616163 171 18339644541868728302
11132069 177 18413387622553793512
12107183 9 17758671149094547672
12173636 292 18412538838215934751
12236239 1 18113616785278711608
12251169 10 18335419058626839812
12390115 104 18058187045917566929
12403814 3 17967810540098913893
12500047 106 18342170072821942290
13140716 1 18196659720713077267
13167823 11 18334011696638900474
13380535 76 18342458110424584151
13583140 156 17168141226512086633
13760787 19 18335423495612984166
14897335 6 18410856542613011678
15042514 8 18338803441607345163
15196674 1 18410293596801479376
15442244 35 18336261246163970618
15536298 74 18271245993636555662
15669948 3 18341889744390795502
16945 1 18341613745861182607
17492 89 18408605894073017466
1813 80 17023749979935929062
18186145 218 18128828438391486300
19050596 39 18261670458876618050
20279233 1 16487257681717948830
204376 136 18339646642286414961
20510252 161 18201160962150396129
20645477 56 18412829092206180752
21267235 1 18408612461119444354
21524375 3 18340485573800582831
23366157 5 18045227028835090190
23402539 116 18343292670083563957
23402655 69 18335423487107510652
23463225 33 18335419032725193158
23557571 272 18129391551775321598
23559900 14 18201724999221212126
2748010 2 18123482587651938159
335352 9 18338234839355091230
3545911 37 18412266138448259636
4214541 1 18410292510486080772
474 4 17459194152292286556
474229 33 18411983564160569643
5104073 3 18335700563752900344
573450 72 18336535088778152690
58051976 100 18335704970304806398
58051976 378 18270116803921856021
633830 44 17985831436883293909
6430166 295 18410854339363347560
69090 78 18409727348371236003
7097593 13 18188476970496055410
7364860 26 18054510205497632727
77779 3 18408605863991447536
7832392 63 18409166636660408284
9709674 26 18342463642395455918

> <PUBCHEM_SHAPE_MULTIPOLES>
338.11
9.04
2.14
0.68
4.22
0.59
-0.01
-2.7
-0.48
-1.29
0.13
0.19
-0.01
-0.69

> <PUBCHEM_SHAPE_SELFOVERLAP>
754.238

> <PUBCHEM_SHAPE_VOLUME>
178.7

> <RelativeEnergy>
0

> <StereoisomerIndex>
1

> <TautomerIndex>
1

> <POSE_NUMBER>
1

> <LibDockScore>
60.9459

> <HotSpots>
9.21,3.67,-12.86,A,26,9
11.21,4.87,-14.65,A,18,10
16.61,6.47,-11.46,A,30,16

> <-In-Situ Starting Energy>
-574.450702

> <-In-Situ Final Energy>
17.5785649

> <In-Situ Gradient>
0.000844392412

$$$$
10724
  SciTegic09142310043D

 21 22  0  0  0  0            999 V2000
    6.5136    1.6440    3.0977 O   0  0  0  1  0  0
    7.0186   -1.1114    0.7043 C   0  0  0  1  0  0
    6.2147   -0.3935   -0.3789 C   0  0  0  1  0  0
    6.7767   -0.4966    2.0937 C   0  0  0  1  0  0
    6.5922    1.0557   -0.3953 C   0  0  0  1  0  0
    6.7733    1.7387    0.8047 C   0  0  0  1  0  0
    6.6746    1.0363    2.0838 C   0  0  0  1  0  0
    6.7859    1.7240   -1.5974 C   0  0  0  1  0  0
    7.0485    3.0983    0.8005 C   0  0  0  1  0  0
    7.1201    3.0689   -1.5961 C   0  0  0  1  0  0
    7.2029    3.7628   -0.4029 C   0  0  0  1  0  0
    6.7909   -2.1779    0.7135 H   0  0
    8.0773   -1.0374    0.4550 H   0  0
    6.3977   -0.8230   -1.3570 H   0  0
    5.1455   -0.4768   -0.1993 H   0  0
    5.8614   -0.8758    2.5373 H   0  0
    7.5865   -0.7718    2.7596 H   0  0
    6.6749    1.2015   -2.5367 H   0  0
    7.1546    3.6399    1.7307 H   0  0
    7.2907    3.5891   -2.5244 H   0  0
    7.3896    4.8243   -0.4115 H   0  0
  1  7  2  0
  2  3  1  0
  2  4  1  0
  3  5  1  0
  4  7  1  0
  5  6  2  0
  5  8  1  0
  6  7  1  0
  6  9  1  0
  8 10  2  0
  9 11  2  0
 10 11  1  0
  2 12  1  0
  2 13  1  0
  3 14  1  0
  3 15  1  0
  4 16  1  0
  4 17  1  0
  8 18  1  0
  9 19  1  0
 10 20  1  0
 11 21  1  0
M  END
> <Name>
10724

> <Binding Energy>
-37.2331

> <Ligand Energy>
10.8051

> <Protein Energy>
-7801.1566

> <Complex Energy>
-7827.5846

> <Complex Entropy>
-31.4755

> <Protein Entropy>
-31.4717

> <Ligand Entropy>
-17.3149

> <Entropic Energy>
17.3111

> <AbsoluteEnergy>
14.348

> <ConfNumber>
2

> <IonizationIndex>
1

> <MOL_NUMBER>
24

> <NumberOfIonizations>
1

> <NumberOfStereoisomers>
1

> <NumberOfTautomers>
1

> <PUBCHEM_ATOM_DEF_STEREO_COUNT>
0

> <PUBCHEM_ATOM_UDEF_STEREO_COUNT>
0

> <PUBCHEM_BOND_DEF_STEREO_COUNT>
0

> <PUBCHEM_BOND_UDEF_STEREO_COUNT>
0

> <PUBCHEM_CACTVS_TAUTO_COUNT>
2

> <PUBCHEM_COMPONENT_COUNT>
1

> <PUBCHEM_COMPOUND_CID>
10724

> <PUBCHEM_CONFORMER_DIVERSEORDER>
1

> <PUBCHEM_CONFORMER_ID>
000029E400000001

> <PUBCHEM_CONFORMER_RMSD>
0.4

> <PUBCHEM_COORDINATE_TYPE>
2
5
10

> <PUBCHEM_EFFECTIVE_ROTOR_COUNT>
0.6

> <PUBCHEM_FEATURE_SELFOVERLAP>
15.245

> <PUBCHEM_HEAVY_ATOM_COUNT>
11

> <PUBCHEM_ISOTOPIC_ATOM_COUNT>
0

> <PUBCHEM_MMFF94_ENERGY>
21.5037

> <PUBCHEM_MMFF94_PARTIAL_CHARGES>
14
1 -0.57
10 -0.15
11 -0.15
18 0.15
19 0.15
20 0.15
21 0.15
3 0.14
4 0.06
5 -0.14
6 0.09
7 0.42
8 -0.15
9 -0.15

> <PUBCHEM_PHARMACOPHORE_FEATURES>
3
1 1 acceptor
6 2 3 4 5 6 7 rings
6 5 6 8 9 10 11 rings

> <PUBCHEM_SHAPE_FINGERPRINT>
11206711 2 18410294696323689628
12524768 44 18341054124122462823
12897270 3 18410574028143328724
13380535 76 18266454296335003981
16945 1 18410855486029957814
17844478 74 18189067519666240259
18185500 45 17907579485970252063
193761 8 18122626046339521543
19973954 147 18410295804567656828
20201158 50 18411415124468804303
20871998 184 18272092754912832767
21040471 1 18338797801950652004
21501502 16 18410857633418549864
2334 1 17762617695521158230
23552423 10 18188491396968961646
23559900 14 17982739572286253910
241688 4 18051407662946152307
2748010 2 18267022756414929078
5084963 1 18130786741636046466
528886 8 18339919449592075307
66348 1 18338233760790629439

> <PUBCHEM_SHAPE_MULTIPOLES>
220.51
3.58
2.07
0.63
0.61
0.23
0.01
-0.07
0.11
-0.53
-0.02
-0.03
-0.04
0.14

> <PUBCHEM_SHAPE_SELFOVERLAP>
473.748

> <PUBCHEM_SHAPE_VOLUME>
121.5

> <RelativeEnergy>
0.0107351

> <StereoisomerIndex>
1

> <TautomerIndex>
1

> <POSE_NUMBER>
1

> <LibDockScore>
65.9205

> <HotSpots>
7.01,-0.53,1.54,A,78,2
7.61,2.87,-1.05,A,58,9
7.21,1.27,-2.85,A,46,10

> <-In-Situ Starting Energy>
-28.3938445

> <-In-Situ Final Energy>
22.9695785

> <In-Situ Gradient>
0.0008257613986

$$$$
10976
  SciTegic09142310043D

 24 23  0  0  0  0            999 V2000
    6.3875   11.6179   -0.0302 O   0  0  0  1  0  0
    7.7382    9.5021   -2.0718 C   0  0  0  1  0  0
    6.5562   10.4363   -2.2298 C   0  0  0  1  0  0
    8.8102    9.3987   -3.1699 C   0  0  0  1  0  0
    5.8351   10.6158   -0.8617 C   0  0  1  1  0  0
    8.3067    9.0512   -4.5688 C   0  0  0  1  0  0
    5.7047    9.3210   -0.0532 C   0  0  0  1  0  0
    8.2646    7.5392   -4.8070 C   0  0  0  1  0  0
    6.5866   12.4122   -0.5099 H   0  0
    8.2252    9.8320   -1.1541 H   0  0
    7.3230    8.5088   -1.9212 H   0  0
    5.8933    9.9549   -2.9424 H   0  0
    6.8510   11.3816   -2.6810 H   0  0
    9.4075   10.2898   -3.1273 H   0  0
    9.5547    8.6435   -2.9325 H   0  0
    4.8070   10.8919   -1.0178 H   0  0
    9.0101    9.4686   -5.2839 H   0  0
    7.3305    9.5011   -4.7511 H   0  0
    4.9839    9.4430    0.7537 H   0  0
    6.6524    9.0346    0.3905 H   0  0
    5.3615    8.4922   -0.6723 H   0  0
    7.7245    7.0466   -4.0057 H   0  0
    9.2708    7.1200   -4.8268 H   0  0
    7.7814    7.2804   -5.7471 H   0  0
  1  5  1  0
  2  3  1  0
  2  4  1  0
  3  5  1  0
  4  6  1  0
  5  7  1  0
  6  8  1  0
  1  9  1  0
  2 10  1  0
  2 11  1  0
  3 12  1  0
  3 13  1  0
  4 14  1  0
  4 15  1  0
  5 16  1  0
  6 17  1  0
  6 18  1  0
  7 19  1  0
  7 20  1  0
  7 21  1  0
  8 22  1  0
  8 23  1  0
  8 24  1  0
M  END
> <Name>
10976

> <Binding Energy>
-20.8256

> <Ligand Energy>
8.4447

> <Protein Energy>
-7801.1566

> <Complex Energy>
-7813.5376

> <Complex Entropy>
-31.4752

> <Protein Entropy>
-31.4717

> <Ligand Entropy>
-16.9575

> <Entropic Energy>
16.954

> <AbsoluteEnergy>
5.24875

> <ConfNumber>
37

> <IonizationIndex>
1

> <MOL_NUMBER>
26

> <NumberOfIonizations>
1

> <NumberOfStereoisomers>
1

> <NumberOfTautomers>
1

> <PUBCHEM_ATOM_DEF_STEREO_COUNT>
0

> <PUBCHEM_ATOM_UDEF_STEREO_COUNT>
1

> <PUBCHEM_BOND_DEF_STEREO_COUNT>
0

> <PUBCHEM_BOND_UDEF_STEREO_COUNT>
0

> <PUBCHEM_CACTVS_TAUTO_COUNT>
1

> <PUBCHEM_COMPONENT_COUNT>
1

> <PUBCHEM_COMPOUND_CID>
10976

> <PUBCHEM_CONFORMER_DIVERSEORDER>
1
51
28
52
60
39
43
12
47
56
2
25
54
41
58
4
9
36
46
61
35
21
10
57
22
44
45
59
29
20
19
55
14
33
27
38
53
16
31
13
48
24
8
50
40
32
37
42
5
17
18
3
49
11
26
15
34
7
23
30
6

> <PUBCHEM_CONFORMER_ID>
00002AE000000001

> <PUBCHEM_CONFORMER_RMSD>
0.6

> <PUBCHEM_COORDINATE_TYPE>
2
5
10

> <PUBCHEM_EFFECTIVE_ROTOR_COUNT>
4

> <PUBCHEM_FEATURE_SELFOVERLAP>
20.297

> <PUBCHEM_HEAVY_ATOM_COUNT>
8

> <PUBCHEM_ISOTOPIC_ATOM_COUNT>
0

> <PUBCHEM_MMFF94_ENERGY>
0.6362

> <PUBCHEM_MMFF94_PARTIAL_CHARGES>
3
1 -0.68
24 0.4
5 0.28

> <PUBCHEM_PHARMACOPHORE_FEATURES>
4
1 1 acceptor
1 1 donor
1 8 hydrophobe
4 2 3 4 6 hydrophobe

> <PUBCHEM_SHAPE_FINGERPRINT>
11062470 55 18260831488222752872
12932764 1 17967521376829919864
14325111 11 18409449189362478970
190213 19 17561366184234797792
20211469 26 11599999938439079881
20719005 15 18409167710059107017
22485316 2 18341890788526563298
23402539 116 17988635273544845381
3248919 1 17131843070191853480
5460574 1 10375870771025367768

> <PUBCHEM_SHAPE_MULTIPOLES>
158.77
6.95
0.96
0.66
3.13
0.14
-0.01
-0.55
0.44
-0.53
0.07
0
0.01
-0.15

> <PUBCHEM_SHAPE_SELFOVERLAP>
276.857

> <PUBCHEM_SHAPE_VOLUME>
105.9

> <RelativeEnergy>
3.31284

> <StereoisomerIndex>
1

> <TautomerIndex>
1

> <POSE_NUMBER>
1

> <LibDockScore>
66.6657

> <HotSpots>
8.01,10.07,-2.25,A,50,2
5.81,8.67,-0.66,A,61,7
8.41,8.07,-4.86,A,38,8

> <-In-Situ Starting Energy>
-63.647682

> <-In-Situ Final Energy>
4.90436521

> <In-Situ Gradient>
0.0009325648948

$$$$
10983
  SciTegic09142310043D

 22 21  0  0  0  0            999 V2000
    7.6419    8.3773   -4.6409 N   0  0  0  1  0  0
    9.6169    9.2218   -3.8236 N   0  0  0  1  0  0
    9.5486    8.2680   -5.9483 N   0  0  0  1  0  0
    6.5869   10.0883   -1.4630 C   0  0  0  1  0  0
    6.9440    9.9084   -2.7456 C   0  0  0  1  0  0
    6.9017    8.5695   -3.4073 C   0  0  0  1  0  0
    5.9632    9.0452   -0.5652 C   0  0  0  1  0  0
    6.5823   11.4445   -0.8366 C   0  0  0  1  0  0
    8.9447    8.6329   -4.8195 C   0  0  0  1  0  0
    7.1023    7.9511   -5.3668 H   0  0
    9.1957    9.3731   -2.9276 H   0  0
    9.0295    7.8165   -6.6707 H   0  0
   10.5362    8.3998   -6.0738 H   0  0
    7.3355   10.7104   -3.3376 H   0  0
    7.1446    7.7566   -2.7231 H   0  0
    5.8843    8.4591   -3.7437 H   0  0
    6.6589    8.7474    0.2140 H   0  0
    5.6644    8.1543   -1.1171 H   0  0
    5.0717    9.4353   -0.0727 H   0  0
    6.8802   12.2212   -1.5410 H   0  0
    7.2237   11.4724    0.0372 H   0  0
    5.5801   11.6483   -0.5090 H   0  0
  1  6  1  0
  1  9  1  0
  2  9  2  0
  3  9  1  0
  4  5  2  0
  4  7  1  0
  4  8  1  0
  5  6  1  0
  1 10  1  0
  2 11  1  0
  3 12  1  0
  3 13  1  0
  5 14  1  0
  6 15  1  0
  6 16  1  0
  7 17  1  0
  7 18  1  0
  7 19  1  0
  8 20  1  0
  8 21  1  0
  8 22  1  0
M  END
> <Name>
10983

> <Binding Energy>
-22.0614

> <Ligand Energy>
14.5932

> <Protein Energy>
-7801.1566

> <Complex Energy>
-7808.6249

> <Complex Entropy>
-31.4755

> <Protein Entropy>
-31.4717

> <Ligand Entropy>
-17.1291

> <Entropic Energy>
17.1253

> <AbsoluteEnergy>
23.836

> <ConfNumber>
30

> <Ionization pH>
7.03_D

> <IonizationIndex>
2

> <MOL_NUMBER>
29

> <NumberOfIonizations>
2

> <NumberOfStereoisomers>
1

> <NumberOfTautomers>
3

> <PUBCHEM_ATOM_DEF_STEREO_COUNT>
0

> <PUBCHEM_ATOM_UDEF_STEREO_COUNT>
0

> <PUBCHEM_BOND_DEF_STEREO_COUNT>
0

> <PUBCHEM_BOND_UDEF_STEREO_COUNT>
0

> <PUBCHEM_CACTVS_TAUTO_COUNT>
2

> <PUBCHEM_COMPONENT_COUNT>
1

> <PUBCHEM_COMPOUND_CID>
10983

> <PUBCHEM_CONFORMER_DIVERSEORDER>
1
15
4
13
20
3
17
10
22
14
5
18
8
9
16
21
11
12
2
19
6
7

> <PUBCHEM_CONFORMER_ID>
00002AE700000001

> <PUBCHEM_CONFORMER_RMSD>
0.4

> <PUBCHEM_COORDINATE_TYPE>
2
5
10

> <PUBCHEM_EFFECTIVE_ROTOR_COUNT>
2

> <PUBCHEM_FEATURE_SELFOVERLAP>
20.353

> <PUBCHEM_HEAVY_ATOM_COUNT>
9

> <PUBCHEM_ISOTOPIC_ATOM_COUNT>
0

> <PUBCHEM_MMFF94_ENERGY>
17.3185

> <PUBCHEM_MMFF94_PARTIAL_CHARGES>
14
1 -0.7
10 0.15
19 0.4
2 -0.85
20 0.4
21 0.4
22 0.4
3 -0.85
4 -0.28
5 -0.29
6 0.38
7 0.14
8 0.14
9 0.55

> <PUBCHEM_PHARMACOPHORE_FEATURES>
4
1 2 donor
1 3 donor
3 4 7 8 hydrophobe
4 1 2 3 9 cation

> <PUBCHEM_SHAPE_FINGERPRINT>
10219947 1 17968089811894402066
10857977 72 14201402711275345943
11062470 55 15913325793088885394
124424 183 16153973682440807038
12897270 3 15482675666995665784
12932764 1 17489874834015855675
14325111 11 17918273142941427850
14390081 3 17989205932262605249
15310529 11 13254804520576033912
15775835 57 18202283580469940400
20279233 1 15339120138912471429
3248919 1 18408606976029508402

> <PUBCHEM_SHAPE_MULTIPOLES>
170.27
5.86
1.03
0.93
0.75
0.29
0.01
0.59
-0.93
-0.64
0.12
0.49
0.04
-0.45

> <PUBCHEM_SHAPE_SELFOVERLAP>
314.705

> <PUBCHEM_SHAPE_VOLUME>
106.8

> <RelativeEnergy>
12.1428

> <StereoisomerIndex>
1

> <TautomerIndex>
2

> <POSE_NUMBER>
1

> <LibDockScore>
71.4664

> <HotSpots>
9.81,9.87,-3.46,P,67,2
7.21,9.27,-3.25,A,45,6
6.41,11.47,-0.06,A,67,8

> <-In-Situ Starting Energy>
-166.592861

> <-In-Situ Final Energy>
-0.304064572

> <In-Situ Gradient>
0.0008578881924

$$$$
1983
  SciTegic09142310043D

 20 20  0  0  0  0            999 V2000
    6.9504   -2.2237    0.7463 O   0  0  0  1  0  0
    8.5973    2.7734    3.3987 O   0  0  0  1  0  0
    6.8883    3.1629    1.9581 N   0  0  0  1  0  0
    6.8702    1.8659    1.5561 C   0  0  0  1  0  0
    6.1725    0.9571    2.3371 C   0  0  0  1  0  0
    7.5997    1.4125    0.4595 C   0  0  0  1  0  0
    6.2962   -0.3943    2.0932 C   0  0  0  1  0  0
    7.6347    0.0501    0.1589 C   0  0  0  1  0  0
    6.9929   -0.8623    0.9926 C   0  0  0  1  0  0
    7.6781    3.4747    3.0049 C   0  0  0  1  0  0
    7.2777    4.7238    3.7711 C   0  0  0  1  0  0
    7.7160   -2.5815    0.3042 H   0  0
    6.2596    3.8362    1.5727 H   0  0
    5.5480    1.2776    3.1571 H   0  0
    8.1548    2.1099   -0.1513 H   0  0
    5.8266   -1.0814    2.7723 H   0  0
    8.1723   -0.2799   -0.7166 H   0  0
    8.0375    5.4935    3.7501 H   0  0
    7.1865    4.4263    4.8105 H   0  0
    6.3313    5.1268    3.4171 H   0  0
  1  9  1  0
  2 10  2  0
  3  4  1  0
  3 10  1  0
  4  5  2  0
  4  6  1  0
  5  7  1  0
  6  8  2  0
  7  9  2  0
  8  9  1  0
 10 11  1  0
  1 12  1  0
  3 13  1  0
  5 14  1  0
  6 15  1  0
  7 16  1  0
  8 17  1  0
 11 18  1  0
 11 19  1  0
 11 20  1  0
M  END
> <Name>
1983

> <Binding Energy>
-37.6945

> <Ligand Energy>
-9.395

> <Protein Energy>
-7801.1566

> <Complex Energy>
-7848.2461

> <Complex Entropy>
-31.4757

> <Protein Entropy>
-31.4717

> <Ligand Entropy>
-17.4435

> <Entropic Energy>
17.4395

> <AbsoluteEnergy>
24.1866

> <ConfNumber>
1

> <Ionization pH>
7.5

> <IonizationIndex>
1

> <MOL_NUMBER>
37

> <NumberOfIonizations>
1

> <NumberOfStereoisomers>
1

> <NumberOfTautomers>
2

> <PUBCHEM_ATOM_DEF_STEREO_COUNT>
0

> <PUBCHEM_ATOM_UDEF_STEREO_COUNT>
0

> <PUBCHEM_BOND_DEF_STEREO_COUNT>
0

> <PUBCHEM_BOND_UDEF_STEREO_COUNT>
0

> <PUBCHEM_CACTVS_TAUTO_COUNT>
4

> <PUBCHEM_COMPONENT_COUNT>
1

> <PUBCHEM_COMPOUND_CID>
1983

> <PUBCHEM_CONFORMER_DIVERSEORDER>
1
2

> <PUBCHEM_CONFORMER_ID>
000007BF00000001

> <PUBCHEM_CONFORMER_RMSD>
0.4

> <PUBCHEM_COORDINATE_TYPE>
2
5
10

> <PUBCHEM_EFFECTIVE_ROTOR_COUNT>
2

> <PUBCHEM_FEATURE_SELFOVERLAP>
20.297

> <PUBCHEM_HEAVY_ATOM_COUNT>
11

> <PUBCHEM_ISOTOPIC_ATOM_COUNT>
0

> <PUBCHEM_MMFF94_ENERGY>
29.3225

> <PUBCHEM_MMFF94_PARTIAL_CHARGES>
17
1 -0.53
10 0.57
11 0.06
12 0.15
13 0.15
14 0.37
15 0.15
16 0.15
2 -0.57
20 0.45
3 -0.55
4 0.12
5 -0.15
6 -0.15
7 -0.15
8 -0.15
9 0.08

> <PUBCHEM_PHARMACOPHORE_FEATURES>
4
1 1 donor
1 2 acceptor
1 3 donor
6 4 5 6 7 8 9 rings

> <PUBCHEM_SHAPE_FINGERPRINT>
10219947 1 18113338621837817764
11062470 55 18411419518204251026
12032990 46 18411707547554542334
12932764 1 17203596078260793835
13380535 76 18408886260652285810
14144814 61 18411136913877994947
14325111 11 18410856538196653569
15775835 57 18272936041829235069
16945 1 18410575114838704230
17844478 74 18113625564592914661
20201158 50 18335140894964588331
20645477 70 18339636729639669727
20871998 22 17982735177796030006
21040471 1 18338799051918016902
23235685 24 18409442613778059272
23402539 116 18337099151254697655
23402655 69 18341040836126580581
2748010 2 18194397788770795348
3248919 1 16877955914211802171
528886 8 18411414033747415386
53812653 166 18343296011552328384

> <PUBCHEM_SHAPE_MULTIPOLES>
209.66
5.89
1.4
0.59
2.62
0.02
0
-0.3
0
-0.18
0
0
0.01
0

> <PUBCHEM_SHAPE_SELFOVERLAP>
432.756

> <PUBCHEM_SHAPE_VOLUME>
120.2

> <RelativeEnergy>
0

> <StereoisomerIndex>
1

> <TautomerIndex>
1

> <POSE_NUMBER>
1

> <LibDockScore>
64.2401

> <HotSpots>
7.81,2.67,0.94,A,73,6
6.01,0.67,0.55,A,70,7
7.01,5.67,3.94,A,89,11

> <-In-Situ Starting Energy>
-644.3871

> <-In-Situ Final Energy>
25.4310466

> <In-Situ Gradient>
0.000770495263

$$$$
2294
  SciTegic09142310043D

 25 25  0  0  0  0            999 V2000
    8.4357    1.0544    1.8632 O   0  0  0  1  0  0
    4.4955    1.6492   -0.7891 O   0  0  0  1  0  0
    6.4049   -2.5826   -0.1081 O   0  0  0  1  0  0
    7.4784   -0.7190    0.8209 N   0  0  0  1  0  0
    5.5710   -0.4477   -0.5113 N   0  0  0  1  0  0
    6.8901    1.5610    0.0796 C   0  0  0  1  0  0
    6.5707    2.8237    0.9083 C   0  0  0  1  0  0
    7.8982    1.8513   -1.0599 C   0  0  0  1  0  0
    7.6741    0.6029    1.0174 C   0  0  0  1  0  0
    5.5878    0.8921   -0.4591 C   0  0  0  1  0  0
    5.5680    2.5880    2.0523 C   0  0  0  1  0  0
    7.4050    2.7026   -2.2274 C   0  0  0  1  0  0
    6.5076   -1.2502    0.0463 C   0  0  0  1  0  0
    4.7174    2.4176   -1.3103 H   0  0
    7.1856   -3.0710    0.1438 H   0  0
    7.4914    3.2301    1.3315 H   0  0
    6.2160    3.6102    0.2528 H   0  0
    8.7651    2.3545   -0.6314 H   0  0
    8.2692    0.9146   -1.4799 H   0  0
    5.5056    3.4717    2.6880 H   0  0
    5.8534    1.7441    2.6756 H   0  0
    4.5696    2.3699    1.6763 H   0  0
    6.9642    3.6416   -1.8937 H   0  0
    6.6846    2.1495   -2.8284 H   0  0
    8.2361    2.9555   -2.8859 H   0  0
  1  9  2  0
  2 10  1  0
  3 13  1  0
  4  9  1  0
  4 13  2  0
  5 10  2  0
  5 13  1  0
  6  7  1  0
  6  8  1  0
  6  9  1  0
  6 10  1  0
  7 11  1  0
  8 12  1  0
  2 14  1  0
  3 15  1  0
  7 16  1  0
  7 17  1  0
  8 18  1  0
  8 19  1  0
 11 20  1  0
 11 21  1  0
 11 22  1  0
 12 23  1  0
 12 24  1  0
 12 25  1  0
M  END
> <Name>
2294

> <Binding Energy>
-58.1014

> <Ligand Energy>
32.4304

> <Protein Energy>
-7801.1566

> <Complex Energy>
-7826.8277

> <Complex Entropy>
-31.4765

> <Protein Entropy>
-31.4717

> <Ligand Entropy>
-17.8859

> <Entropic Energy>
17.8811

> <AbsoluteEnergy>
30.7774

> <ConfNumber>
9

> <Ionization pH>
7.83_P

> <IonizationIndex>
1

> <MOL_NUMBER>
67

> <NumberOfIonizations>
2

> <NumberOfStereoisomers>
1

> <NumberOfTautomers>
8

> <PUBCHEM_ATOM_DEF_STEREO_COUNT>
0

> <PUBCHEM_ATOM_UDEF_STEREO_COUNT>
0

> <PUBCHEM_BOND_DEF_STEREO_COUNT>
0

> <PUBCHEM_BOND_UDEF_STEREO_COUNT>
0

> <PUBCHEM_CACTVS_TAUTO_COUNT>
5

> <PUBCHEM_COMPONENT_COUNT>
1

> <PUBCHEM_COMPOUND_CID>
2294

> <PUBCHEM_CONFORMER_DIVERSEORDER>
1
2
3

> <PUBCHEM_CONFORMER_ID>
000008F600000001

> <PUBCHEM_CONFORMER_RMSD>
0.6

> <PUBCHEM_COORDINATE_TYPE>
2
5
10

> <PUBCHEM_EFFECTIVE_ROTOR_COUNT>
2.6

> <PUBCHEM_FEATURE_SELFOVERLAP>
40.636

> <PUBCHEM_HEAVY_ATOM_COUNT>
13

> <PUBCHEM_ISOTOPIC_ATOM_COUNT>
0

> <PUBCHEM_MMFF94_ENERGY>
33.9658

> <PUBCHEM_MMFF94_PARTIAL_CHARGES>
11
1 -0.57
10 0.57
13 0.69
2 -0.57
24 0.37
25 0.37
3 -0.57
4 -0.49
5 -0.49
6 0.12
9 0.57

> <PUBCHEM_PHARMACOPHORE_FEATURES>
8
1 1 acceptor
1 11 hydrophobe
1 12 hydrophobe
1 2 acceptor
1 3 acceptor
1 4 donor
1 5 donor
6 4 5 6 9 10 13 rings

> <PUBCHEM_SHAPE_FINGERPRINT>
10702982 57 17606698077811339724
12326174 3 17460907027713982582
12423570 1 7849402129161528452
12716758 59 18054530241925724540
13024252 1 14060945336608516770
137420 1 11477455188651998196
14713566 1 18195553534737810860
14993402 34 18188500068734941814
16945 1 18126824041584201291
20511035 2 18334848467784466603
20653085 51 17464007852462934380
21040471 1 18268711795359236015
22344851 12 12154389154387654162
23419403 2 17468145095448114736
23559900 14 18057905713276319908
241688 4 17254852866279425403
2748010 2 18056475286637851029
430814 3 17678185003523058924
4369600 1 18059310802165924789
5084963 1 18041548217863222919
528862 383 18040716978261033106

> <PUBCHEM_SHAPE_MULTIPOLES>
239.96
3.05
1.97
1.47
2.34
0.34
0.12
-0.4
0.15
-0.91
-0.18
-0.8
-0.16
-0.85

> <PUBCHEM_SHAPE_SELFOVERLAP>
493.384

> <PUBCHEM_SHAPE_VOLUME>
136.1

> <RelativeEnergy>
15.7156

> <StereoisomerIndex>
1

> <TautomerIndex>
7

> <POSE_NUMBER>
1

> <LibDockScore>
72.4054

> <HotSpots>
6.01,1.67,2.54,A,83,7
7.81,2.67,0.94,A,73,8
6.61,-0.93,-0.06,A,65,13

> <-In-Situ Starting Energy>
-256.0485

> <-In-Situ Final Energy>
29.6503543

> <In-Situ Gradient>
0.0008252490033

$$$$
2353
  SciTegic09142310043D

 43 47  0  0  0  0            999 V2000
   13.6372    5.5593   -4.6382 O   0  0  0  1  0  0
   12.9585    3.4645   -4.7337 O   0  0  0  1  0  0
   11.7866    3.7249  -14.6155 O   0  0  0  1  0  0
    9.1062    2.6961  -14.9737 O   0  0  0  1  0  0
   13.2464    4.0712  -10.8969 N   0  3  0  1  0  0
   14.4235    4.9435  -10.7163 C   0  0  0  1  0  0
   14.1415    5.9454   -9.6012 C   0  0  0  1  0  0
   12.6063    3.5297   -9.7772 C   0  0  0  1  0  0
   13.5957    5.2829   -8.3633 C   0  0  0  1  0  0
   12.9692    4.0095   -8.4911 C   0  0  0  1  0  0
   12.8149    3.8488  -12.1530 C   0  0  0  1  0  0
   11.5608    2.5981   -9.9794 C   0  0  0  1  0  0
   11.6394    3.1064  -12.3492 C   0  0  0  1  0  0
   11.0379    2.4478  -11.2681 C   0  0  0  1  0  0
   13.7020    5.9396   -7.1433 C   0  0  0  1  0  0
   12.7041    3.3409   -7.2606 C   0  0  0  1  0  0
   13.4624    5.2449   -5.9998 C   0  0  0  1  0  0
   13.0038    3.9305   -6.0636 C   0  0  0  1  0  0
   11.0538    3.0910  -13.6182 C   0  0  0  1  0  0
    9.8698    1.7076  -11.4653 C   0  0  0  1  0  0
    9.7824    2.5042  -13.7736 C   0  0  0  1  0  0
   13.4764    4.4196   -3.8206 C   0  0  0  1  0  0
    9.2169    1.7961  -12.6919 C   0  0  0  1  0  0
   11.1232    4.7998  -15.2376 C   0  0  0  1  0  0
    8.0630    1.7917  -15.2549 C   0  0  0  1  0  0
   14.6655    5.4823  -11.6339 H   0  0
   15.2906    4.3274  -10.4715 H   0  0
   15.0898    6.4185   -9.3525 H   0  0
   13.4448    6.7160   -9.9334 H   0  0
   13.3558    4.2681  -12.9890 H   0  0
   11.1185    2.0526   -9.1564 H   0  0
   14.0020    6.9776   -7.1084 H   0  0
   12.2755    2.3499   -7.2384 H   0  0
    9.4310    1.1475  -10.6549 H   0  0
   12.7839    4.6146   -3.0024 H   0  0
   14.4449    4.0929   -3.4464 H   0  0
    8.2469    1.3370  -12.7487 H   0  0
   10.3513    5.2316  -14.5996 H   0  0
   10.6999    4.4556  -16.1759 H   0  0
   11.8309    5.5919  -15.4752 H   0  0
    7.2272    1.8643  -14.5598 H   0  0
    8.4826    0.8355  -15.3749 H   0  0
    7.6849    1.8195  -16.2599 H   0  0
  1 17  1  0
  1 22  1  0
  2 18  1  0
  2 22  1  0
  3 19  1  0
  3 24  1  0
  4 21  1  0
  4 25  1  0
  5  6  1  0
  5  8  2  0
  5 11  1  0
  6  7  1  0
  7  9  1  0
  8 10  1  0
  8 12  1  0
  9 10  2  0
  9 15  1  0
 10 16  1  0
 11 13  2  0
 12 14  2  0
 13 14  1  0
 13 19  1  0
 14 20  1  0
 15 17  2  0
 16 18  2  0
 17 18  1  0
 19 21  2  0
 20 23  2  0
 21 23  1  0
  6 26  1  0
  6 27  1  0
  7 28  1  0
  7 29  1  0
 11 30  1  0
 12 31  1  0
 15 32  1  0
 16 33  1  0
 20 34  1  0
 22 35  1  0
 22 36  1  0
 23 37  1  0
 24 38  1  0
 24 39  1  0
 24 40  1  0
 25 41  1  0
 25 42  1  0
 25 43  1  0
M  CHG  1   5   1
M  END
> <Name>
2353

> <Binding Energy>
-27.3038

> <Ligand Energy>
67.8835

> <Protein Energy>
-7801.1566

> <Complex Energy>
-7760.577

> <Complex Entropy>
-31.4833

> <Protein Entropy>
-31.4717

> <Ligand Entropy>
-19.7323

> <Entropic Energy>
19.7207

> <AbsoluteEnergy>
103.238

> <ConfNumber>
2

> <IonizationIndex>
1

> <MOL_NUMBER>
72

> <NumberOfIonizations>
1

> <NumberOfStereoisomers>
1

> <NumberOfTautomers>
1

> <PUBCHEM_ATOM_DEF_STEREO_COUNT>
0

> <PUBCHEM_ATOM_UDEF_STEREO_COUNT>
0

> <PUBCHEM_BOND_DEF_STEREO_COUNT>
0

> <PUBCHEM_BOND_UDEF_STEREO_COUNT>
0

> <PUBCHEM_CACTVS_TAUTO_COUNT>
1

> <PUBCHEM_COMPONENT_COUNT>
1

> <PUBCHEM_COMPOUND_CID>
2353

> <PUBCHEM_CONFORMER_DIVERSEORDER>
1
2

> <PUBCHEM_CONFORMER_ID>
93100000001

> <PUBCHEM_CONFORMER_RMSD>
0.6

> <PUBCHEM_COORDINATE_TYPE>
2
5
10

> <PUBCHEM_EFFECTIVE_ROTOR_COUNT>
3

> <PUBCHEM_FEATURE_SELFOVERLAP>
45.913

> <PUBCHEM_HEAVY_ATOM_COUNT>
25

> <PUBCHEM_ISOTOPIC_ATOM_COUNT>
0

> <PUBCHEM_MMFF94_ENERGY>
99.9502

> <PUBCHEM_MMFF94_PARTIAL_CHARGES>
28
1 -0.36
11 0.21
12 -0.15
15 -0.15
16 -0.15
17 0.08
18 0.08
19 0.08
2 -0.36
20 -0.15
21 0.08
22 0.56
23 -0.15
24 0.28
25 0.28
3 -0.36
30 0.15
31 0.15
32 0.15
33 0.15
34 0.15
37 0.15
4 -0.36
5 -0.21
6 0.49
7 0.14
8 0.36
9 -0.14

> <PUBCHEM_PHARMACOPHORE_FEATURES>
9
1 1 acceptor
1 2 acceptor
1 3 acceptor
1 4 acceptor
5 1 2 17 18 22 rings
6 13 14 19 20 21 23 rings
6 5 6 7 8 9 10 rings
6 5 8 11 12 13 14 rings
6 9 10 15 16 17 18 rings

> <PUBCHEM_SHAPE_FINGERPRINT>
10 15 18342444964468409130
10835480 77 18410003343445223381
10906281 52 18267043767943534737
11578080 2 16808121407936261031
11719270 70 18342171155513066086
11963148 33 18411411830309101150
12107183 9 17617378381259765850
12166972 35 17821731645656918332
12236239 1 17822010883008089802
12403260 363 18334577906778623304
12516196 113 18131068238488390363
13288520 33 18410293601787491197
13402501 40 18411982468522084955
13544653 18 18409175419731242113
13685833 64 18336551603407583531
13862211 1 18412260657764249207
14341114 176 18410862074936992815
14787075 74 18336547213180548803
15196674 1 18411420600863245597
15352361 1 18411420613995963383
15927050 60 17479735361439718828
15961568 22 17676773175339546252
17349148 13 18041002830030970924
17492 89 18196653999653797094
17844677 252 18409174294117787077
1813 80 17603307059534533365
18681886 176 18411979157703199426
200 152 18060135410206396465
20028762 73 18342455941725166742
21033648 29 17202182067489349195
21130935 74 18272087133318035818
21236236 1 18342458093872520833
21267235 1 18341337721240266126
21315763 129 18334856087256922716
21792934 111 18342448236600894977
221490 88 18340772537872039942
22149856 69 18270414866341501377
23402539 116 18333728000873914943
23522609 53 18125471758880020745
23559900 14 18339917108977310768
239999 70 18271813397924886782
2871803 45 18335701624230032963
3004659 81 18260547823034156952
314194 84 18201998858993910615
329604 57 18410858758821502056
350125 39 18411699885839242940
4073 2 18114187474895478851
4214541 1 18338517443676163205
4325135 7 18408325514127506668
5104073 3 18271805657702255616
5283173 99 18187921725661189477
59755656 215 18410014308190612558
67856867 119 18334857229950429428
7495541 125 18060133262907488480
9709674 26 18126289644700087990

> <PUBCHEM_SHAPE_MULTIPOLES>
486.03
14.51
2.56
0.74
1.61
0.77
-0.03
-5.18
-0.88
-0.37
0.18
-0.48
0.03
0.06

> <PUBCHEM_SHAPE_SELFOVERLAP>
1101.711

> <PUBCHEM_SHAPE_VOLUME>
254.8

> <RelativeEnergy>
0.0770139

> <StereoisomerIndex>
1

> <TautomerIndex>
1

> <POSE_NUMBER>
1

> <LibDockScore>
89.8637

> <HotSpots>
13.41,5.07,-3.25,A,44,22
11.21,4.87,-14.65,A,18,24
7.21,2.27,-14.26,A,20,25

> <-In-Situ Starting Energy>
-5238.49286

> <-In-Situ Final Energy>
-47.7548856

> <In-Situ Gradient>
0.0009822133361

$$$$
2481
  SciTegic09142310043D

 31 31  0  0  0  0            999 V2000
    8.0824   -0.1448    0.4502 O   0  0  0  1  0  0
    3.9676    1.9832    0.6432 O   0  0  0  1  0  0
    5.7322    0.1648    4.4315 O   0  0  0  1  0  0
    6.9644    0.0694    2.4083 N   0  0  0  1  0  0
    5.0332    1.3607    2.5510 N   0  5  0  1  0  0
    6.3921    1.5919    0.5331 C   0  0  2  1  0  0
    6.0850    1.3840   -0.9877 C   0  0  0  1  0  0
    7.2375    1.3225   -2.0295 C   0  0  0  1  0  0
    7.1310    2.9240    0.8213 C   0  0  0  1  0  0
    7.2274    0.4142    1.1189 C   0  0  0  1  0  0
    5.0114    1.6815    1.2403 C   0  0  0  1  0  0
    6.6988    0.7511   -3.3504 C   0  0  0  1  0  0
    7.9003    2.6817   -2.3126 C   0  0  0  1  0  0
    7.5207    3.1854    2.2554 C   0  0  0  1  0  0
    5.9344    0.5466    3.1449 C   0  0  0  1  0  0
    6.9350    4.0788    3.0710 C   0  0  0  1  0  0
    6.5004    0.1157    5.0070 H   0  0
    5.4000    2.1628   -1.3297 H   0  0
    5.5223    0.4524   -1.0778 H   0  0
    8.0112    0.6317   -1.7017 H   0  0
    8.0613    2.9389    0.2664 H   0  0
    6.5463    3.7577    0.4388 H   0  0
    5.9312    1.3936   -3.7791 H   0  0
    6.2509   -0.2282   -3.2001 H   0  0
    7.4931    0.6332   -4.0878 H   0  0
    8.7152    2.8892   -1.6265 H   0  0
    7.1861    3.5022   -2.2529 H   0  0
    8.3501    2.7041   -3.3050 H   0  0
    8.4207    2.6829    2.5637 H   0  0
    6.0671    4.6316    2.7676 H   0  0
    7.3030    4.2877    4.0598 H   0  0
  1 10  2  0
  2 11  2  0
  3 15  1  0
  4 10  1  0
  4 15  2  0
  5 11  1  0
  5 15  1  0
  6  7  1  0
  6  9  1  0
  6 10  1  0
  6 11  1  0
  7  8  1  0
  8 12  1  0
  8 13  1  0
  9 14  1  0
 14 16  2  0
  3 17  1  0
  7 18  1  0
  7 19  1  0
  8 20  1  0
  9 21  1  0
  9 22  1  0
 12 23  1  0
 12 24  1  0
 12 25  1  0
 13 26  1  0
 13 27  1  0
 13 28  1  0
 14 29  1  0
 16 30  1  0
 16 31  1  0
M  CHG  1   5  -1
M  END
> <Name>
2481

> <Binding Energy>
-92.0792

> <Ligand Energy>
33.154

> <Protein Energy>
-7801.1566

> <Complex Energy>
-7860.0818

> <Complex Entropy>
-31.4775

> <Protein Entropy>
-31.4717

> <Ligand Entropy>
-18.4564

> <Entropic Energy>
18.4505

> <AbsoluteEnergy>
39.8986

> <ConfNumber>
45

> <Ionization pH>
7.79_D

> <IonizationIndex>
2

> <MOL_NUMBER>
87

> <NumberOfIonizations>
2

> <NumberOfStereoisomers>
2

> <NumberOfTautomers>
3

> <PUBCHEM_ATOM_DEF_STEREO_COUNT>
0

> <PUBCHEM_ATOM_UDEF_STEREO_COUNT>
0

> <PUBCHEM_BOND_DEF_STEREO_COUNT>
0

> <PUBCHEM_BOND_UDEF_STEREO_COUNT>
0

> <PUBCHEM_CACTVS_TAUTO_COUNT>
5

> <PUBCHEM_COMPONENT_COUNT>
1

> <PUBCHEM_COMPOUND_CID>
2481

> <PUBCHEM_CONFORMER_DIVERSEORDER>
1
3
2

> <PUBCHEM_CONFORMER_ID>
000009B100000001

> <PUBCHEM_CONFORMER_RMSD>
0.6

> <PUBCHEM_COORDINATE_TYPE>
2
5
10

> <PUBCHEM_EFFECTIVE_ROTOR_COUNT>
4.6

> <PUBCHEM_FEATURE_SELFOVERLAP>
40.636

> <PUBCHEM_HEAVY_ATOM_COUNT>
16

> <PUBCHEM_ISOTOPIC_ATOM_COUNT>
0

> <PUBCHEM_MMFF94_ENERGY>
69.8252

> <PUBCHEM_MMFF94_PARTIAL_CHARGES>
17
1 -0.57
10 0.57
11 0.57
14 -0.29
15 0.69
16 -0.3
2 -0.57
28 0.37
29 0.37
3 -0.57
30 0.15
31 0.15
32 0.15
4 -0.49
5 -0.49
6 0.12
9 0.14

> <PUBCHEM_PHARMACOPHORE_FEATURES>
8
1 1 acceptor
1 16 hydrophobe
1 2 acceptor
1 3 acceptor
1 4 donor
1 5 donor
3 8 12 13 hydrophobe
6 4 5 6 10 11 15 rings

> <PUBCHEM_SHAPE_FINGERPRINT>
10702982 57 18335989752163878076
12423570 1 12512623906802765845
12491281 212 17488766513436815160
12592029 89 18262522476897518096
13024252 1 14057830750668596892
141345 1 9360516737880479448
14713566 1 17972022897930535068
14817 1 15022496678849159075
16945 1 17976838492223925337
20511035 2 17623833640165792805
21339142 149 18199749318354297268
22344851 341 18198923425659207110
23419403 2 16833822590982874935
305870 269 18265344906129882212
430814 3 18411703153623605013
528862 383 18191587445418562165
576247 118 17332815353391780878
68419 9 18057020459347283061
7364860 26 18048323236419682493
81228 2 17979941606264070896

> <PUBCHEM_SHAPE_MULTIPOLES>
301.7
3.33
2.76
1.63
1.51
2.92
-0.2
-2.53
0.35
0.15
-0.52
-0.42
-0.13
-0.63

> <PUBCHEM_SHAPE_SELFOVERLAP>
624.867

> <PUBCHEM_SHAPE_VOLUME>
169

> <RelativeEnergy>
15.9312

> <StereoisomerIndex>
2

> <TautomerIndex>
3

> <POSE_NUMBER>
1

> <LibDockScore>
91.997

> <HotSpots>
5.81,-0.73,4.54,P,96,3
7.21,1.27,-2.85,A,46,13
9.21,2.67,2.54,A,84,16

> <-In-Situ Starting Energy>
-153.886308

> <-In-Situ Final Energy>
36.2676026

> <In-Situ Gradient>
0.0009684604167

$$$$
2707
  SciTegic09142310043D

 10  9  0  0  0  0            999 V2000
    7.3651    0.4281   -0.1335 Cl  0  0  0  1  0  0
    7.1773    3.2040   -0.9775 Cl  0  0  0  1  0  0
    6.5773    1.0579   -2.8531 Cl  0  0  0  1  0  0
    4.0891    2.5662   -1.2612 O   0  0  0  1  0  0
    4.2512    0.4021   -0.8679 O   0  0  0  1  0  0
    4.9587    1.6109   -0.6909 C   0  0  0  1  0  0
    6.4547    1.5820   -1.1498 C   0  0  0  1  0  0
    4.4697    2.8914   -2.0850 H   0  0
    4.6119   -0.0353   -1.6429 H   0  0
    4.9402    1.8151    0.3830 H   0  0
  1  7  1  0
  2  7  1  0
  3  7  1  0
  4  6  1  0
  5  6  1  0
  6  7  1  0
  4  8  1  0
  5  9  1  0
  6 10  1  0
M  END
> <Name>
2707

> <Binding Energy>
-16.0191

> <Ligand Energy>
12.8889

> <Protein Energy>
-7801.1566

> <Complex Energy>
-7804.2868

> <Complex Entropy>
-31.476

> <Protein Entropy>
-31.4717

> <Ligand Entropy>
-17.3076

> <Entropic Energy>
17.3033

> <AbsoluteEnergy>
8.09638

> <ConfNumber>
1

> <IonizationIndex>
1

> <MOL_NUMBER>
89

> <NumberOfIonizations>
1

> <NumberOfStereoisomers>
1

> <NumberOfTautomers>
1

> <PUBCHEM_ATOM_DEF_STEREO_COUNT>
0

> <PUBCHEM_ATOM_UDEF_STEREO_COUNT>
0

> <PUBCHEM_BOND_DEF_STEREO_COUNT>
0

> <PUBCHEM_BOND_UDEF_STEREO_COUNT>
0

> <PUBCHEM_CACTVS_TAUTO_COUNT>
1

> <PUBCHEM_COMPONENT_COUNT>
1

> <PUBCHEM_COMPOUND_CID>
2707

> <PUBCHEM_CONFORMER_DIVERSEORDER>
1

> <PUBCHEM_CONFORMER_ID>
00000A9300000001

> <PUBCHEM_CONFORMER_RMSD>
0.4

> <PUBCHEM_COORDINATE_TYPE>
2
5
10

> <PUBCHEM_EFFECTIVE_ROTOR_COUNT>
1

> <PUBCHEM_FEATURE_SELFOVERLAP>
20.384

> <PUBCHEM_HEAVY_ATOM_COUNT>
7

> <PUBCHEM_ISOTOPIC_ATOM_COUNT>
0

> <PUBCHEM_MMFF94_ENERGY>
1.7077

> <PUBCHEM_MMFF94_PARTIAL_CHARGES>
9
1 -0.29
10 0.4
2 -0.29
3 -0.29
4 -0.68
5 -0.68
6 0.56
7 0.87
9 0.4

> <PUBCHEM_PHARMACOPHORE_FEATURES>
4
1 4 acceptor
1 4 donor
1 5 acceptor
1 5 donor

> <PUBCHEM_SHAPE_FINGERPRINT>
137420 1 15430325766623903669
20096714 4 18269558234460517224
21040471 1 18267310824119154809
24536 1 18338497699558282504
29004967 10 18050287264961026603
5084963 1 17914047599628799417
5943 1 17315950850834636893

> <PUBCHEM_SHAPE_MULTIPOLES>
137.93
2
1.58
1.29
0.48
0.04
0.86
-0.01
-0.4
-0.41
-0.43
-0.38
-0.04
-0.01

> <PUBCHEM_SHAPE_SELFOVERLAP>
227.698

> <PUBCHEM_SHAPE_VOLUME>
95.7

> <RelativeEnergy>
0

> <StereoisomerIndex>
1

> <TautomerIndex>
1

> <POSE_NUMBER>
1

> <LibDockScore>
39.9595

> <HotSpots>
6.61,4.27,3.15,A,86,2
7.81,2.67,0.94,A,73,3
6.01,1.67,2.54,A,83,6

> <-In-Situ Starting Energy>
-2463.01824

> <-In-Situ Final Energy>
38.896808

> <In-Situ Gradient>
0.0009968052206

$$$$
2719
  SciTegic09142310043D

 49 50  0  0  0  0            999 V2000
    5.8214   -0.2850    3.9680 Cl  0  0  0  1  0  0
   10.9189   -0.8144   -7.2071 N   0  3  0  1  0  0
    7.9328    0.9169   -2.3449 N   0  0  0  1  0  0
    6.7119    3.4773    0.7193 N   0  0  0  1  0  0
    7.8670    0.1342   -4.7291 C   0  0  0  1  0  0
    9.2955   -0.4285   -5.0829 C   0  0  0  1  0  0
    7.8725    1.3418   -3.7391 C   0  0  2  1  0  0
    9.7640   -1.2336   -6.3313 C   0  0  0  1  0  0
    8.9223    2.4829   -3.9873 C   0  0  0  1  0  0
   10.5626   -0.5217   -8.6134 C   0  0  0  1  0  0
   11.7819    0.2885   -6.7251 C   0  0  0  1  0  0
    7.4784    1.7295   -1.3341 C   0  0  0  1  0  0
    7.1824    1.2444   -0.0408 C   0  0  0  1  0  0
   11.6763   -0.8058   -9.6344 C   0  0  0  1  0  0
   12.6632   -0.0583   -5.5264 C   0  0  0  1  0  0
    7.2837    3.0959   -1.5550 C   0  0  0  1  0  0
    6.7275    2.1388    0.9678 C   0  0  0  1  0  0
    7.3055   -0.1291    0.2529 C   0  0  0  1  0  0
    7.0009    3.9321   -0.4994 C   0  0  0  1  0  0
    6.2904    1.6434    2.1964 C   0  0  0  1  0  0
    6.9196   -0.6087    1.5052 C   0  0  0  1  0  0
    6.3944    0.2821    2.4504 C   0  0  0  1  0  0
   11.5325   -1.6255   -7.2462 H   0  0
    8.3350    0.0296   -2.1225 H   0  0
    7.2711    0.4152   -5.5790 H   0  0
    7.1872   -0.5964   -4.3109 H   0  0
    9.6108   -1.0006   -4.2131 H   0  0
    9.9311    0.4136   -5.1695 H   0  0
    6.8574    1.7310   -3.7789 H   0  0
   10.1987   -2.0836   -5.8455 H   0  0
    8.9667   -1.7014   -6.9044 H   0  0
    9.8583    2.1497   -4.3942 H   0  0
    9.1935    3.0506   -3.1072 H   0  0
    8.6513    3.2459   -4.6938 H   0  0
    9.6787   -1.0974   -8.8816 H   0  0
   10.2922    0.5291   -8.7026 H   0  0
   12.4637    0.5825   -7.5227 H   0  0
   11.1767    1.1765   -6.5508 H   0  0
   12.1098   -1.7959   -9.5166 H   0  0
   12.4938   -0.0896   -9.5565 H   0  0
   11.2904   -0.7240  -10.6506 H   0  0
   13.6015   -0.4905   -5.8723 H   0  0
   12.1897   -0.7741   -4.8559 H   0  0
   12.9224    0.8346   -4.9567 H   0  0
    7.3552    3.5794   -2.5097 H   0  0
    7.6796   -0.8344   -0.4678 H   0  0
    7.0063    4.9911   -0.7014 H   0  0
    5.8465    2.3414    2.8906 H   0  0
    7.0154   -1.6635    1.7034 H   0  0
  1 22  1  0
  2  8  1  0
  2 10  1  0
  2 11  1  0
  3  7  1  0
  3 12  1  0
  4 17  2  0
  4 19  1  0
  5  6  1  0
  5  7  1  0
  6  8  1  0
  7  9  1  0
 10 14  1  0
 11 15  1  0
 12 13  2  0
 12 16  1  0
 13 17  1  0
 13 18  1  0
 16 19  2  0
 17 20  1  0
 18 21  2  0
 20 22  2  0
 21 22  1  0
  2 23  1  0
  3 24  1  0
  5 25  1  0
  5 26  1  0
  6 27  1  0
  6 28  1  0
  7 29  1  0
  8 30  1  0
  8 31  1  0
  9 32  1  0
  9 33  1  0
  9 34  1  0
 10 35  1  0
 10 36  1  0
 11 37  1  0
 11 38  1  0
 14 39  1  0
 14 40  1  0
 14 41  1  0
 15 42  1  0
 15 43  1  0
 15 44  1  0
 16 45  1  0
 18 46  1  0
 19 47  1  0
 20 48  1  0
 21 49  1  0
M  CHG  1   2   1
M  END
> <Name>
2719

> <Binding Energy>
-31.6015

> <Ligand Energy>
85.4652

> <Protein Energy>
-7801.1566

> <Complex Energy>
-7747.293

> <Complex Entropy>
-31.4806

> <Protein Entropy>
-31.4717

> <Ligand Entropy>
-19.8316

> <Entropic Energy>
19.8226

> <AbsoluteEnergy>
57.6963

> <ConfNumber>
135

> <Ionization pH>
7.5

> <IonizationIndex>
1

> <MOL_NUMBER>
90

> <NumberOfIonizations>
1

> <NumberOfStereoisomers>
1

> <NumberOfTautomers>
2

> <PUBCHEM_ATOM_DEF_STEREO_COUNT>
0

> <PUBCHEM_ATOM_UDEF_STEREO_COUNT>
1

> <PUBCHEM_BOND_DEF_STEREO_COUNT>
0

> <PUBCHEM_BOND_UDEF_STEREO_COUNT>
0

> <PUBCHEM_CACTVS_TAUTO_COUNT>
3

> <PUBCHEM_COMPONENT_COUNT>
1

> <PUBCHEM_COMPOUND_CID>
2719

> <PUBCHEM_CONFORMER_DIVERSEORDER>
2
120
121
189
185
119
279
323
41
293
125
89
308
319
292
260
159
136
104
24
33
263
287
58
139
207
283
231
85
142
138
197
324
148
137
66
291
238
211
17
101
193
169
91
165
64
164
257
56
268
270
32
6
67
224
49
190
191
255
178
133
202
97
10
205
35
29
52
251
176
130
15
183
147
212
18
40
60
182
254
84
47
37
78
160
113
141
75
140
4
156
110
135
196
108
83
188
19
13
155
296
318
235
96
88
241
266
290
1
62
61
55
310
262
282
8
74
201
77
162
168
179
295
90
322
150
210
23
246
229
184
256
217
9
274
152
27
303
271
82
236
247
240
225
34
20
284
175
127
281
320
158
14
123
93
316
272
239
126
131
118
69
81
307
109
220
163
321
44
216
223
194
213
26
203
98
234
132
145
228
171
105
73
289
232
301
3
161
300
57
253
209
124
252
258
11
134
31
195
312
153
244
298
43
38
100
242
177
313
286
39
87
94
54
122
86
180
71
103
200
299
114
305
297
70
53
215
50
277
186
259
48
111
302
128
173
280
28
306
314
264
157
230
92
181
199
95
218
12
167
227
72
63
79
143
7
76
198
304
170
214
149
237
245
68
102
276
5
204
59
144
187
317
309
315
269
51
267
222
112
233
219
65
249
146
46
16
106
261
115
250
22
248
151
172
273
174
80
99
208
243
206
21
45
192
25
221
275
30
166
117
226
107
294
285
116
42
278
129
154
36
265
288
311

> <PUBCHEM_CONFORMER_ID>
00000A9F00000002

> <PUBCHEM_CONFORMER_RMSD>
0.8

> <PUBCHEM_COORDINATE_TYPE>
2
5
10

> <PUBCHEM_EFFECTIVE_ROTOR_COUNT>
8

> <PUBCHEM_FEATURE_SELFOVERLAP>
30.477

> <PUBCHEM_HEAVY_ATOM_COUNT>
22

> <PUBCHEM_ISOTOPIC_ATOM_COUNT>
0

> <PUBCHEM_MMFF94_ENERGY>
60.0605

> <PUBCHEM_MMFF94_PARTIAL_CHARGES>
22
1 -0.18
10 0.27
11 0.27
12 0.1
16 -0.15
17 0.31
18 -0.15
19 0.16
2 -0.81
20 -0.15
21 -0.15
22 0.18
3 -0.87
30 0.4
4 -0.62
44 0.15
45 0.15
46 0.15
47 0.15
48 0.15
7 0.37
8 0.27

> <PUBCHEM_PHARMACOPHORE_FEATURES>
6
1 2 cation
1 3 cation
1 3 donor
1 4 acceptor
6 13 17 18 20 21 22 rings
6 4 12 13 16 17 19 rings

> <PUBCHEM_SHAPE_FINGERPRINT>
10498660 4 18340218410008213429
11370993 70 18263078817170811233
11640471 11 17750532804274918423
11725454 13 17704064110238610494
11796584 16 10810990399222569928
12596602 18 17530970236629664784
12633257 1 18408597076262078232
12788726 201 17681010783204928331
12969540 114 15840993394580509200
13009979 54 17751644492573211762
13103583 49 16226049993751162353
13402501 40 18131346427472917201
13583140 156 17773875471173258554
13965767 371 17968653804986663325
14178342 30 18188776183587861242
14251764 30 10159398986437888341
14739800 52 17903923601962430116
14957384 54 18335702775307693960
15209294 21 18261385693955036714
15527383 91 15646774479027721868
20511986 3 17531237404986130333
20715895 44 17315630696063675125
20739085 24 16660649570465340326
21304303 282 18269255994034985767
21427221 339 17821452369618904238
22749437 52 18044103358627729861
23557571 272 18128837389208982311
23559900 14 18267322957391242847
238 59 15985102994413276482
2838139 119 17632003204701841408
341906 21 18410862078783651741
3797600 57 16738946974115389955
427121 178 18270685255369466397
484985 159 13841362032423437944
7064713 232 18261395499054598253
9981440 41 18261959553315463387

> <PUBCHEM_SHAPE_MULTIPOLES>
439.68
10.27
3.1
1.88
0.43
1.47
-1.01
-8.29
3.88
3.31
0.55
-1.82
0.04
0.77

> <PUBCHEM_SHAPE_SELFOVERLAP>
897.579

> <PUBCHEM_SHAPE_VOLUME>
255.7

> <RelativeEnergy>
14.1218

> <StereoisomerIndex>
1

> <TautomerIndex>
1

> <POSE_NUMBER>
7

> <LibDockScore>
102.3149

> <HotSpots>
5.81,-0.33,4.34,A,91,1
9.41,-1.33,-5.66,A,37,8
6.01,1.67,2.54,A,83,20

> <-In-Situ Starting Energy>
-16087.2395

> <-In-Situ Final Energy>
-57.7273209

> <In-Situ Gradient>
0.0009959085953

$$$$
3108
  SciTegic09142310043D

 77 80  0  0  0  0            999 V2000
    8.9457    4.6650  -13.1664 O   0  0  0  1  0  0
   11.4783    5.4060  -12.8850 O   0  0  0  1  0  0
   16.2000   -1.7811   -7.3408 O   0  0  0  1  0  0
   12.7741    2.6894   -6.6403 O   0  0  0  1  0  0
   10.7935   -0.2165   -9.7132 N   0  0  0  1  0  0
   14.7185    4.2589  -10.7613 N   0  0  0  1  0  0
   10.9509    1.1901  -11.5549 N   0  3  0  1  0  0
   15.0583    2.5985   -9.1768 N   0  0  0  1  0  0
   12.5383    2.8786  -11.8000 N   0  0  0  1  0  0
   13.4687    0.8676   -8.9526 N   0  0  0  1  0  0
   10.7426    2.6688  -13.2931 N   0  0  0  1  0  0
   15.1797    1.0611   -7.4478 N   0  0  0  1  0  0
    9.5230   -0.6128  -10.3335 C   0  0  0  1  0  0
   11.2406   -0.9249   -8.4892 C   0  0  0  1  0  0
   15.0983    4.4028  -12.1651 C   0  0  0  1  0  0
   14.7795    5.4563   -9.9340 C   0  0  0  1  0  0
    8.5908   -1.5426   -9.5818 C   0  0  0  1  0  0
   10.1608   -1.3330   -7.4849 C   0  0  0  1  0  0
   16.4862    5.0013  -12.2842 C   0  0  0  1  0  0
   16.1724    6.0248  -10.0934 C   0  0  0  1  0  0
    8.8361   -1.8896   -8.0776 C   0  0  0  1  0  0
   16.4607    6.3393  -11.5248 C   0  0  0  1  0  0
   11.4981    0.7460  -10.4059 C   0  0  0  1  0  0
   14.3612    3.0848  -10.2140 C   0  0  0  1  0  0
   13.2163    2.4363  -10.6974 C   0  0  0  1  0  0
   12.7226    1.3131  -10.0008 C   0  0  0  1  0  0
   11.4408    2.2469  -12.1937 C   0  0  0  1  0  0
   14.5597    1.5251   -8.5605 C   0  0  0  1  0  0
    9.3071    2.3619  -13.4639 C   0  0  0  1  0  0
   11.3537    3.4427  -14.3821 C   0  0  0  1  0  0
   16.5827    0.6421   -7.5027 C   0  0  0  1  0  0
   14.4597    0.9555   -6.1706 C   0  0  0  1  0  0
    8.4471    3.4027  -12.7706 C   0  0  0  1  0  0
   12.0157    4.7546  -14.0190 C   0  0  0  1  0  0
   16.7401   -0.7435   -8.1404 C   0  0  0  1  0  0
   13.8066    2.2862   -5.7557 C   0  0  0  1  0  0
    8.2674    5.3364  -13.1093 H   0  0
   10.5642    5.1311  -12.8053 H   0  0
   15.2511   -1.6843   -7.2359 H   0  0
   12.0394    2.0881   -6.5890 H   0  0
   10.1706    0.7527  -11.9368 H   0  0
    8.9600    0.2657  -10.6242 H   0  0
    9.7564   -1.0749  -11.2916 H   0  0
   11.8660   -0.2970   -7.8715 H   0  0
   11.8702   -1.7613   -8.7774 H   0  0
   15.0210    3.4578  -12.7035 H   0  0
   14.4130    5.1245  -12.5913 H   0  0
   14.5784    5.2190   -8.8881 H   0  0
   14.0201    6.1688  -10.2581 H   0  0
    8.5526   -2.4104  -10.2432 H   0  0
    7.5795   -1.3637   -9.7105 H   0  0
   10.6200   -1.9859   -6.7480 H   0  0
    9.9464   -0.4554   -6.8801 H   0  0
   16.8058    5.0992  -13.3191 H   0  0
   17.1991    4.3083  -11.8427 H   0  0
   16.3283    6.8806   -9.4484 H   0  0
   16.8613    5.2235   -9.8569 H   0  0
    8.0460   -1.9004   -7.3295 H   0  0
    8.6312   -2.9250   -8.0808 H   0  0
   17.3827    6.8772  -11.6632 H   0  0
   15.6636    7.0230  -11.8089 H   0  0
    9.0424    1.3735  -13.1028 H   0  0
    9.0564    2.3429  -14.5254 H   0  0
   12.0799    2.8186  -14.9015 H   0  0
   10.5697    3.7451  -15.0749 H   0  0
   17.1517    1.3742   -8.0776 H   0  0
   17.0191    0.6483   -6.5049 H   0  0
   15.1507    0.6339   -5.3918 H   0  0
   13.7098    0.1670   -6.2395 H   0  0
    7.3892    3.2542  -13.0257 H   0  0
    8.5712    3.3136  -11.6922 H   0  0
   11.9971    5.4275  -14.8819 H   0  0
   13.0498    4.5295  -13.8284 H   0  0
   17.8009   -0.9588   -8.2701 H   0  0
   16.3064   -0.7738   -9.1449 H   0  0
   13.4224    2.2370   -4.7316 H   0  0
   14.5611    3.0753   -5.7537 H   0  0
  1 33  1  0
  2 34  1  0
  3 35  1  0
  4 36  1  0
  5 13  1  0
  5 14  1  0
  5 23  1  0
  6 15  1  0
  6 16  1  0
  6 24  1  0
  7 23  2  0
  7 27  1  0
  8 24  2  0
  8 28  1  0
  9 25  1  0
  9 27  2  0
 10 26  1  0
 10 28  2  0
 11 27  1  0
 11 29  1  0
 11 30  1  0
 12 28  1  0
 12 31  1  0
 12 32  1  0
 13 17  1  0
 14 18  1  0
 15 19  1  0
 16 20  1  0
 17 21  1  0
 18 21  1  0
 19 22  1  0
 20 22  1  0
 23 26  1  0
 24 25  1  0
 25 26  2  0
 29 33  1  0
 30 34  1  0
 31 35  1  0
 32 36  1  0
  1 37  1  0
  2 38  1  0
  3 39  1  0
  4 40  1  0
  7 41  1  0
 13 42  1  0
 13 43  1  0
 14 44  1  0
 14 45  1  0
 15 46  1  0
 15 47  1  0
 16 48  1  0
 16 49  1  0
 17 50  1  0
 17 51  1  0
 18 52  1  0
 18 53  1  0
 19 54  1  0
 19 55  1  0
 20 56  1  0
 20 57  1  0
 21 58  1  0
 21 59  1  0
 22 60  1  0
 22 61  1  0
 29 62  1  0
 29 63  1  0
 30 64  1  0
 30 65  1  0
 31 66  1  0
 31 67  1  0
 32 68  1  0
 32 69  1  0
 33 70  1  0
 33 71  1  0
 34 72  1  0
 34 73  1  0
 35 74  1  0
 35 75  1  0
 36 76  1  0
 36 77  1  0
M  CHG  1   7   1
M  END
> <Name>
3108

> <Binding Energy>
-49.0734

> <Ligand Energy>
-7.7205

> <Protein Energy>
-7801.1566

> <Complex Energy>
-7857.9505

> <Complex Entropy>
-31.4893

> <Protein Entropy>
-31.4717

> <Ligand Entropy>
-20.7041

> <Entropic Energy>
20.6865

> <AbsoluteEnergy>
65.5676

> <ConfNumber>
41

> <Ionization pH>
7.51_DP

> <IonizationIndex>
1

> <MOL_NUMBER>
100

> <NumberOfIonizations>
2

> <NumberOfStereoisomers>
1

> <NumberOfTautomers>
1

> <PUBCHEM_ATOM_DEF_STEREO_COUNT>
0

> <PUBCHEM_ATOM_UDEF_STEREO_COUNT>
0

> <PUBCHEM_BOND_DEF_STEREO_COUNT>
0

> <PUBCHEM_BOND_UDEF_STEREO_COUNT>
0

> <PUBCHEM_CACTVS_TAUTO_COUNT>
1

> <PUBCHEM_COMPONENT_COUNT>
1

> <PUBCHEM_COMPOUND_CID>
3108

> <PUBCHEM_CONFORMER_DIVERSEORDER>
1
6
7
4
5
3
2

> <PUBCHEM_CONFORMER_ID>
00000C2400000001

> <PUBCHEM_CONFORMER_RMSD>
1.2

> <PUBCHEM_COORDINATE_TYPE>
2
5
10

> <PUBCHEM_EFFECTIVE_ROTOR_COUNT>
14.4

> <PUBCHEM_FEATURE_SELFOVERLAP>
71.086

> <PUBCHEM_HEAVY_ATOM_COUNT>
36

> <PUBCHEM_ISOTOPIC_ATOM_COUNT>
0

> <PUBCHEM_MMFF94_ENERGY>
114.7264

> <PUBCHEM_MMFF94_PARTIAL_CHARGES>
34
1 -0.68
10 -0.62
11 -0.84
12 -0.84
13 0.37
14 0.37
15 0.37
16 0.37
2 -0.68
23 0.41
24 0.41
25 0.31
26 0.31
27 0.72
28 0.72
29 0.37
3 -0.68
30 0.37
31 0.37
32 0.37
33 0.28
34 0.28
35 0.28
36 0.28
4 -0.68
5 -0.84
6 -0.84
7 -0.62
73 0.4
74 0.4
75 0.4
76 0.4
8 -0.62
9 -0.62

> <PUBCHEM_PHARMACOPHORE_FEATURES>
14
1 1 acceptor
1 1 donor
1 2 acceptor
1 2 donor
1 3 acceptor
1 3 donor
1 4 acceptor
1 4 donor
4 7 9 11 27 cation
4 8 10 12 28 cation
6 5 13 14 17 18 21 rings
6 6 15 16 19 20 22 rings
6 7 9 23 25 26 27 rings
6 8 10 24 25 26 28 rings

> <PUBCHEM_SHAPE_FINGERPRINT>
10190108 129 17765178084588229249
10675989 125 17182200441463828213
10930396 42 17906971216323479010
1100329 8 18338517567934562568
11227688 84 18267585694259610471
11578080 2 17130422604333158498
12058002 1 17343261534046830275
13140716 1 18050286173875601737
13642711 20 18049419479572053156
13911987 19 18190751833756119085
140371 6 18343308093327331120
14725015 67 18053092922815357666
14790565 3 18338803303640455245
14955137 171 18339378378502753225
15081414 286 18341619213391850464
15439362 3 18339630248233950213
15815584 197 18196940963772097159
15927050 60 18052272961475501389
19311894 1 18342736270003735847
19591789 44 18338801087384927254
20775438 99 17838298086379278885
21033648 29 18201141179441529425
21796203 349 17976017294593267979
23558518 356 17900534885006365306
23559900 14 17472403358396909883
283562 15 17980761541544168056
3178227 256 18409738357264031107
3886686 26 18050814957802800616

> <PUBCHEM_SHAPE_MULTIPOLES>
677.54
9.79
8.4
1.47
0
0
-0.02
0
-0.61
0
0.53
0
0
1.68

> <PUBCHEM_SHAPE_SELFOVERLAP>
1414.179

> <PUBCHEM_SHAPE_VOLUME>
376.4

> <RelativeEnergy>
8.48754

> <StereoisomerIndex>
1

> <TautomerIndex>
1

> <POSE_NUMBER>
4

> <LibDockScore>
100.9177

> <HotSpots>
11.01,5.47,-15.65,P,18,2
16.61,6.47,-11.46,A,30,22
9.01,2.67,-14.05,A,21,33

> <-In-Situ Starting Energy>
-2364.0034

> <-In-Situ Final Energy>
-51.1237935

> <In-Situ Gradient>
0.0009710907628

$$$$
323
  SciTegic09142310043D

 17 18  0  0  0  0            999 V2000
    6.7953    2.4052    1.1936 O   0  0  0  1  0  0
    6.3023    1.5926    3.2112 O   0  0  0  1  0  0
    6.8461    0.8781   -0.6953 C   0  0  0  1  0  0
    7.0397    2.1485   -0.1664 C   0  0  0  1  0  0
    7.0624    0.6712   -2.0503 C   0  0  0  1  0  0
    6.4542   -0.2184    0.1868 C   0  0  0  1  0  0
    7.4693    3.1972   -0.9550 C   0  0  0  1  0  0
    7.5651    1.6994   -2.8357 C   0  0  0  1  0  0
    7.7737    2.9610   -2.2884 C   0  0  0  1  0  0
    6.2999    0.0387    1.4987 C   0  0  0  1  0  0
    6.4750    1.4170    2.0140 C   0  0  0  1  0  0
    6.8518   -0.2828   -2.5024 H   0  0
    6.3089   -1.2015   -0.2231 H   0  0
    7.5708    4.1768   -0.5158 H   0  0
    7.7875    1.5078   -3.8741 H   0  0
    8.1479    3.7659   -2.9027 H   0  0
    6.0480   -0.7403    2.1926 H   0  0
  1  4  1  0
  1 11  1  0
  2 11  2  0
  3  4  2  0
  3  5  1  0
  3  6  1  0
  4  7  1  0
  5  8  2  0
  6 10  2  0
  7  9  2  0
  8  9  1  0
 10 11  1  0
  5 12  1  0
  6 13  1  0
  7 14  1  0
  8 15  1  0
  9 16  1  0
 10 17  1  0
M  END
> <Name>
323

> <Binding Energy>
-30.2822

> <Ligand Energy>
-5.5232

> <Protein Energy>
-7801.1566

> <Complex Energy>
-7836.962

> <Complex Entropy>
-31.4755

> <Protein Entropy>
-31.4717

> <Ligand Entropy>
-17.272

> <Entropic Energy>
17.2681

> <AbsoluteEnergy>
15.871

> <ConfNumber>
1

> <IonizationIndex>
1

> <MOL_NUMBER>
104

> <NumberOfIonizations>
1

> <NumberOfStereoisomers>
1

> <NumberOfTautomers>
1

> <PUBCHEM_ATOM_DEF_STEREO_COUNT>
0

> <PUBCHEM_ATOM_UDEF_STEREO_COUNT>
0

> <PUBCHEM_BOND_DEF_STEREO_COUNT>
0

> <PUBCHEM_BOND_UDEF_STEREO_COUNT>
0

> <PUBCHEM_CACTVS_TAUTO_COUNT>
1

> <PUBCHEM_COMPONENT_COUNT>
1

> <PUBCHEM_COMPOUND_CID>
323

> <PUBCHEM_CONFORMER_DIVERSEORDER>
1

> <PUBCHEM_CONFORMER_ID>
14300000001

> <PUBCHEM_CONFORMER_RMSD>
0.4

> <PUBCHEM_COORDINATE_TYPE>
2
5
10

> <PUBCHEM_EFFECTIVE_ROTOR_COUNT>
0

> <PUBCHEM_FEATURE_SELFOVERLAP>
15.25

> <PUBCHEM_HEAVY_ATOM_COUNT>
11

> <PUBCHEM_ISOTOPIC_ATOM_COUNT>
0

> <PUBCHEM_MMFF94_ENERGY>
34.5205

> <PUBCHEM_MMFF94_PARTIAL_CHARGES>
17
1 -0.23
10 -0.14
11 0.71
12 0.15
13 0.15
14 0.15
15 0.15
16 0.15
17 0.15
2 -0.57
3 0.03
4 0.08
5 -0.15
6 -0.18
7 -0.15
8 -0.15
9 -0.15

> <PUBCHEM_PHARMACOPHORE_FEATURES>
3
1 2 acceptor
6 1 3 4 6 10 11 rings
6 3 4 5 7 8 9 rings

> <PUBCHEM_SHAPE_FINGERPRINT>
12524768 44 18340210699946065110
12897270 3 18411419539800426348
13380535 21 18337407022599262318
13380535 76 18411133649465823814
14325111 11 18410575110543827873
15775835 57 18408328795355900444
16945 1 18410855434495579526
17844478 74 17968106321616780137
19973954 147 18337675346380707938
20201158 50 18413107234341075766
21040471 1 18338517559555637282
21501502 16 18338232781633187414
23235685 24 18411975853918722377
23402655 69 18341883070692041413
23463225 33 18335416829655078626
23552423 10 18189334730982694670
23559900 14 18342466950537839916
241688 4 17260475768854726274
2748010 2 18338517572255961958
369184 2 18411417349251145235
5084963 1 18272650151388851866
528886 8 18411132545732750578
53812653 166 18342733052951086632
63268167 104 18411703166429177904

> <PUBCHEM_SHAPE_MULTIPOLES>
214.64
4.2
1.69
0.6
0.76
0.17
0
-0.7
0
-0.05
0
-0.04
0.02
0

> <PUBCHEM_SHAPE_SELFOVERLAP>
468.748

> <PUBCHEM_SHAPE_VOLUME>
116.3

> <RelativeEnergy>
0

> <StereoisomerIndex>
1

> <TautomerIndex>
1

> <POSE_NUMBER>
1

> <LibDockScore>
66.9822

> <HotSpots>
7.61,2.87,-1.05,A,58,7
7.21,1.27,-2.85,A,46,8
7.01,-0.53,1.54,A,78,10

> <-In-Situ Starting Energy>
-0.07503440811

> <-In-Situ Final Energy>
24.0801186

> <In-Situ Gradient>
0.000964719324

$$$$
3476
  SciTegic09142310043D

 68 70  0  0  0  0            999 V2000
   13.4633   -1.2623  -14.5079 S   0  0  0  1  0  0
   12.9589   -3.6420  -13.2633 O   0  0  0  1  0  0
   13.4432   -0.9976  -13.0989 O   0  0  0  1  0  0
   12.2311   -1.3072  -15.2322 O   0  0  0  1  0  0
   19.3990    6.3902  -21.6250 O   0  0  0  1  0  0
   18.2667    4.2184  -20.1760 O   0  0  0  1  0  0
   14.4827   -4.8540  -14.3922 N   0  0  0  1  0  0
   14.2393   -2.6423  -14.8074 N   0  0  0  1  0  0
   17.8701    6.4423  -19.8733 N   0  0  0  1  0  0
   16.8734    4.8796  -18.5346 N   0  0  0  1  0  0
   13.3503   -8.4942  -15.2712 C   0  0  3  1  0  0
   14.1917   -6.0649  -13.6464 C   0  0  3  1  0  0
   14.8509   -8.1683  -15.0671 C   0  0  0  1  0  0
   12.4300   -7.3234  -15.0425 C   0  0  0  1  0  0
   15.2347   -7.1508  -13.9882 C   0  0  0  1  0  0
   12.7172   -6.4557  -13.8359 C   0  0  0  1  0  0
   12.6238   -9.7230  -14.6813 C   0  0  0  1  0  0
   13.8302   -3.7030  -14.1149 C   0  0  0  1  0  0
   17.1586    7.5099  -19.1575 C   0  0  0  1  0  0
   17.6507    8.7656  -19.8135 C   0  0  0  1  0  0
   18.4871    8.4403  -20.8110 C   0  0  0  1  0  0
   14.5119   -0.0326  -15.2245 C   0  0  0  1  0  0
   18.6513    6.9733  -20.8491 C   0  0  0  1  0  0
   19.1938    9.3687  -21.7644 C   0  0  0  1  0  0
   17.0086    3.0008  -16.9204 C   0  0  0  1  0  0
   16.1610    1.9155  -16.3192 C   0  0  0  1  0  0
   17.7080    5.1239  -19.5707 C   0  0  0  1  0  0
   16.4045    3.5381  -18.2205 C   0  0  0  1  0  0
   17.2877   10.0871  -19.1910 C   0  0  0  1  0  0
   14.9168    1.0418  -14.4477 C   0  0  0  1  0  0
   14.9253   -0.1476  -16.5429 C   0  0  0  1  0  0
   15.7454    2.0098  -14.9942 C   0  0  0  1  0  0
   15.7652    0.8183  -17.0806 C   0  0  0  1  0  0
   18.8240    9.1019  -23.2286 C   0  0  0  1  0  0
   15.1268   -4.8803  -15.1540 H   0  0
   14.6285   -2.8465  -15.7004 H   0  0
   16.4552    5.6437  -18.0471 H   0  0
   13.3942   -8.6540  -16.3371 H   0  0
   14.3418   -5.7933  -12.6032 H   0  0
   15.4504   -9.0657  -14.9501 H   0  0
   15.2146   -7.7292  -15.9987 H   0  0
   11.3980   -7.6277  -14.9821 H   0  0
   12.4239   -6.8030  -15.9558 H   0  0
   16.1669   -6.6653  -14.2818 H   0  0
   15.5480   -7.6992  -13.1144 H   0  0
   12.0576   -5.5960  -13.9154 H   0  0
   12.3519   -6.9208  -12.9390 H   0  0
   12.3507   -9.5522  -13.6461 H   0  0
   13.0836  -10.6867  -14.8176 H   0  0
   11.6650   -9.8719  -15.1420 H   0  0
   17.3857    7.5085  -18.0902 H   0  0
   16.0852    7.4094  -19.3110 H   0  0
   20.2712    9.2616  -21.6362 H   0  0
   18.9510   10.4023  -21.5181 H   0  0
   18.0070    2.6027  -17.1018 H   0  0
   17.0983    3.8117  -16.1973 H   0  0
   16.6025    2.8759  -19.0656 H   0  0
   15.3265    3.6487  -18.1223 H   0  0
   17.3928   10.0402  -18.1069 H   0  0
   16.2542   10.3461  -19.4170 H   0  0
   17.9344   10.8844  -19.5562 H   0  0
   14.5899    1.1138  -13.4201 H   0  0
   14.5879   -0.9771  -17.1471 H   0  0
   16.0640    2.8383  -14.3788 H   0  0
   16.0940    0.7216  -18.1053 H   0  0
   17.7457    9.1381  -23.3776 H   0  0
   19.1627    8.1151  -23.5469 H   0  0
   19.2814    9.8397  -23.8877 H   0  0
  1  3  2  0
  1  4  2  0
  1  8  1  0
  1 22  1  0
  2 18  2  0
  5 23  2  0
  6 27  2  0
  7 12  1  0
  7 18  1  0
  8 18  1  0
  9 19  1  0
  9 23  1  0
  9 27  1  0
 10 27  1  0
 10 28  1  0
 11 13  1  0
 11 14  1  0
 11 17  1  0
 12 15  1  0
 12 16  1  0
 13 15  1  0
 14 16  1  0
 19 20  1  0
 20 21  2  0
 20 29  1  0
 21 23  1  0
 21 24  1  0
 22 30  2  0
 22 31  1  0
 24 34  1  0
 25 26  1  0
 25 28  1  0
 26 32  2  0
 26 33  1  0
 30 32  1  0
 31 33  2  0
  7 35  1  0
  8 36  1  0
 10 37  1  0
 11 38  1  0
 12 39  1  0
 13 40  1  0
 13 41  1  0
 14 42  1  0
 14 43  1  0
 15 44  1  0
 15 45  1  0
 16 46  1  0
 16 47  1  0
 17 48  1  0
 17 49  1  0
 17 50  1  0
 19 51  1  0
 19 52  1  0
 24 53  1  0
 24 54  1  0
 25 55  1  0
 25 56  1  0
 28 57  1  0
 28 58  1  0
 29 59  1  0
 29 60  1  0
 29 61  1  0
 30 62  1  0
 31 63  1  0
 32 64  1  0
 33 65  1  0
 34 66  1  0
 34 67  1  0
 34 68  1  0
M  END
> <Name>
3476

> <Binding Energy>
-63.1667

> <Ligand Energy>
57.9288

> <Protein Energy>
-7801.1566

> <Complex Energy>
-7806.3945

> <Complex Entropy>
-31.4939

> <Protein Entropy>
-31.4717

> <Ligand Entropy>
-21.0609

> <Entropic Energy>
21.0386

> <AbsoluteEnergy>
55.7208

> <ConfNumber>
226

> <Ionization pH>
7.78_P

> <IonizationIndex>
1

> <MOL_NUMBER>
108

> <NumberOfIonizations>
2

> <NumberOfStereoisomers>
1

> <NumberOfTautomers>
2

> <PUBCHEM_ATOM_DEF_STEREO_COUNT>
0

> <PUBCHEM_ATOM_UDEF_STEREO_COUNT>
0

> <PUBCHEM_BOND_DEF_STEREO_COUNT>
0

> <PUBCHEM_BOND_UDEF_STEREO_COUNT>
0

> <PUBCHEM_CACTVS_TAUTO_COUNT>
6

> <PUBCHEM_COMPONENT_COUNT>
1

> <PUBCHEM_COMPOUND_CID>
3476

> <PUBCHEM_CONFORMER_DIVERSEORDER>
1
40
173
172
41
80
97
74
45
57
89
91
18
170
22
149
100
139
124
160
163
14
44
130
96
154
150
157
111
102
94
36
167
161
54
64
123
148
49
104
51
78
60
42
24
27
79
90
114
131
84
117
158
43
122
35
132
2
125
68
48
93
165
65
113
121
133
106
76
151
71
128
127
155
69
37
168
55
109
153
53
72
16
164
28
4
126
142
146
144
15
141
145
105
56
46
58
107
171
5
110
135
61
166
108
39
119
147
29
87
129
85
23
70
32
116
81
99
162
103
118
10
92
62
169
59
83
66
21
8
47
52
140
50
143
98
26
156
137
77
38
159
20
86
6
67
95
7
19
75
63
112
17
120
136
11
9
138
3
88
115
30
82
34
25
33
134
152
73
101
12
31
13

> <PUBCHEM_CONFORMER_ID>
00000D9400000001

> <PUBCHEM_CONFORMER_RMSD>
1.4

> <PUBCHEM_COORDINATE_TYPE>
2
5
10

> <PUBCHEM_EFFECTIVE_ROTOR_COUNT>
12.6

> <PUBCHEM_FEATURE_SELFOVERLAP>
60.96

> <PUBCHEM_HEAVY_ATOM_COUNT>
34

> <PUBCHEM_ISOTOPIC_ATOM_COUNT>
0

> <PUBCHEM_MMFF94_ENERGY>
27.613

> <PUBCHEM_MMFF94_PARTIAL_CHARGES>
34
1 1.45
10 -0.73
12 0.3
18 0.87
19 0.44
2 -0.57
20 -0.28
21 -0.12
22 -0.01
23 0.62
24 0.14
25 0.14
26 -0.14
27 0.69
28 0.3
29 0.14
3 -0.65
30 -0.15
31 -0.15
32 -0.15
33 -0.15
4 -0.65
48 0.37
49 0.42
5 -0.57
6 -0.57
61 0.15
62 0.15
63 0.37
64 0.15
65 0.15
7 -0.73
8 -0.79
9 -0.42

> <PUBCHEM_PHARMACOPHORE_FEATURES>
12
1 10 donor
1 2 acceptor
1 3 acceptor
1 34 hydrophobe
1 4 acceptor
1 5 acceptor
1 6 acceptor
1 7 donor
1 8 donor
5 9 19 20 21 23 rings
6 11 12 13 14 15 16 rings
6 22 26 30 31 32 33 rings

> <PUBCHEM_SHAPE_FINGERPRINT>
10049733 135 16532077971686572177
10305334 12 18411985775367166492
10653451 467 14954364319790891337
10815517 723 18052238623866468178
11059048 146 18337114565639108748
11513181 2 17702653342067540071
12788726 201 18124596650164591999
12978246 48 18412257303468475555
13398642 44 18268724809442946369
15297060 5 17845929637531898586
15351339 4 17830155162913683954
16112460 7 18336261327842416592
161222 619 18120400691024249841
20737093 172 15388163065250592741
20739085 24 17836085572114419618
20764821 26 17471268679312611788
21796203 349 17900277316424474568
245318 6 18127976300185576049
3534868 343 18054192622953210535
437795 96 16967161216508173289
50150288 127 18057059088594437801
5895379 119 18268136729930930834
9980921 221 17684392907369525572

> <PUBCHEM_SHAPE_MULTIPOLES>
654.28
10.63
8.24
2.3
1.89
3.59
0.67
-10.19
2.97
0.09
-1.16
1.31
-0.78
-6.81

> <PUBCHEM_SHAPE_SELFOVERLAP>
1345.026

> <PUBCHEM_SHAPE_VOLUME>
376.4

> <RelativeEnergy>
12.0662

> <StereoisomerIndex>
1

> <TautomerIndex>
1

> <POSE_NUMBER>
1

> <LibDockScore>
133.6876

> <HotSpots>
12.61,-6.33,-13.65,A,24,14
15.61,-6.73,-13.65,A,23,15
17.61,7.87,-18.45,A,8,19

> <-In-Situ Starting Energy>
-443.357694

> <-In-Situ Final Energy>
-30.6577208

> <In-Situ Gradient>
0.0009334752798

$$$$
3559
  SciTegic09142310043D

 50 52  0  0  0  0            999 V2000
    7.6226    2.5820  -13.7459 Cl  0  0  0  1  0  0
   11.2310    1.1023   -5.7925 F   0  0  0  1  0  0
   13.1740    5.6373  -12.7163 O   0  0  0  1  0  0
   17.3215    1.9708   -6.8208 O   0  0  0  1  0  0
   14.6516    2.4717  -10.2944 N   0  3  2  1  0  0
   13.1406    4.3566  -12.1267 C   0  0  3  1  0  0
   14.3354    3.4966  -12.6038 C   0  0  0  1  0  0
   13.3045    4.5818  -10.6131 C   0  0  0  1  0  0
   14.5645    2.2334  -11.7440 C   0  0  0  1  0  0
   13.4875    3.2613   -9.8522 C   0  0  0  1  0  0
   15.9483    3.0385   -9.8801 C   0  0  0  1  0  0
   11.7780    3.8027  -12.4851 C   0  0  0  1  0  0
   17.1009    2.0142   -9.8000 C   0  0  0  1  0  0
   10.6699    4.5920  -12.1963 C   0  0  0  1  0  0
   11.5794    2.6124  -13.1942 C   0  0  0  1  0  0
   16.8586    0.8263   -8.8477 C   0  0  0  1  0  0
    9.4109    4.2445  -12.6438 C   0  0  0  1  0  0
   10.3019    2.2093  -13.5653 C   0  0  0  1  0  0
   16.5283    1.3300   -7.4293 C   0  0  0  1  0  0
    9.2269    3.0369  -13.2847 C   0  0  0  1  0  0
   15.1488    1.2080   -6.9475 C   0  0  0  1  0  0
   14.6073    2.2627   -6.2137 C   0  0  0  1  0  0
   14.3686    0.0866   -7.2303 C   0  0  0  1  0  0
   13.2781    2.2321   -5.8180 C   0  0  0  1  0  0
   13.0394    0.0461   -6.8324 C   0  0  0  1  0  0
   12.5149    1.1260   -6.1461 C   0  0  0  1  0  0
   12.9762    5.5320  -13.6428 H   0  0
   14.5740    1.5713   -9.8384 H   0  0
   14.2290    3.2068  -13.6485 H   0  0
   15.2370    4.1091  -12.5658 H   0  0
   12.4609    5.1336  -10.1992 H   0  0
   14.1739    5.2175  -10.4393 H   0  0
   15.4697    1.7184  -12.0665 H   0  0
   13.7566    1.5184  -11.8893 H   0  0
   13.5821    3.4482   -8.7820 H   0  0
   12.5999    2.6382   -9.9732 H   0  0
   16.2093    3.8582  -10.5509 H   0  0
   15.8172    3.4911   -8.8992 H   0  0
   17.3390    1.6377  -10.7947 H   0  0
   18.0006    2.5303   -9.4665 H   0  0
   10.7847    5.5087  -11.6398 H   0  0
   12.3981    1.9807  -13.4971 H   0  0
   16.0740    0.1826   -9.2387 H   0  0
   17.7577    0.2129   -8.7795 H   0  0
    8.5981    4.9311  -12.5060 H   0  0
   10.1669    1.2790  -14.0953 H   0  0
   15.2186    3.1141   -5.9490 H   0  0
   14.7780   -0.7768   -7.7363 H   0  0
   12.8476    3.0528   -5.2637 H   0  0
   12.4296   -0.8222   -7.0409 H   0  0
  1 20  1  0
  2 26  1  0
  3  6  1  0
  4 19  2  0
  5  9  1  0
  5 10  1  0
  5 11  1  0
  6  7  1  0
  6  8  1  0
  6 12  1  0
  7  9  1  0
  8 10  1  0
 11 13  1  0
 12 14  2  0
 12 15  1  0
 13 16  1  0
 14 17  1  0
 15 18  2  0
 16 19  1  0
 17 20  2  0
 18 20  1  0
 19 21  1  0
 21 22  2  0
 21 23  1  0
 22 24  1  0
 23 25  2  0
 24 26  2  0
 25 26  1  0
  3 27  1  0
  5 28  1  0
  7 29  1  0
  7 30  1  0
  8 31  1  0
  8 32  1  0
  9 33  1  0
  9 34  1  0
 10 35  1  0
 10 36  1  0
 11 37  1  0
 11 38  1  0
 13 39  1  0
 13 40  1  0
 14 41  1  0
 15 42  1  0
 16 43  1  0
 16 44  1  0
 17 45  1  0
 18 46  1  0
 22 47  1  0
 23 48  1  0
 24 49  1  0
 25 50  1  0
M  CHG  1   5   1
M  END
> <Name>
3559

> <Binding Energy>
-102.3395

> <Ligand Energy>
42.2419

> <Protein Energy>
-7801.1566

> <Complex Energy>
-7861.2543

> <Complex Entropy>
-31.4849

> <Protein Entropy>
-31.4717

> <Ligand Entropy>
-20.1001

> <Entropic Energy>
20.0869

> <AbsoluteEnergy>
42.3038

> <ConfNumber>
32

> <Ionization pH>
7.8_P

> <IonizationIndex>
1

> <MOL_NUMBER>
112

> <NumberOfIonizations>
2

> <NumberOfStereoisomers>
1

> <NumberOfTautomers>
1

> <PUBCHEM_ATOM_DEF_STEREO_COUNT>
0

> <PUBCHEM_ATOM_UDEF_STEREO_COUNT>
0

> <PUBCHEM_BOND_DEF_STEREO_COUNT>
0

> <PUBCHEM_BOND_UDEF_STEREO_COUNT>
0

> <PUBCHEM_CACTVS_TAUTO_COUNT>
2

> <PUBCHEM_COMPONENT_COUNT>
1

> <PUBCHEM_COMPOUND_CID>
3559

> <PUBCHEM_CONFORMER_DIVERSEORDER>
1
443
437
168
99
236
408
450
409
169
51
386
2
227
394
204
199
310
279
370
327
326
112
73
369
392
403
200
57
293
182
438
15
97
81
231
387
416
259
224
245
215
250
78
61
319
75
229
359
213
400
209
424
6
206
43
122
334
448
33
47
295
178
273
230
291
98
141
451
323
107
473
110
248
208
114
371
434
217
401
341
405
297
120
308
256
3
276
313
404
109
8
457
477
72
421
471
284
299
162
222
74
79
104
487
466
63
221
459
292
244
119
436
216
86
255
472
155
116
50
311
283
335
294
133
358
195
482
131
439
77
118
68
378
44
329
249
12
290
480
121
212
102
447
253
270
87
474
49
318
95
445
396
422
268
322
414
306
425
272
444
374
373
58
338
108
483
381
25
60
235
175
214
30
260
10
475
430
336
288
80
296
242
357
410
65
103
17
263
280
391
285
289
305
383
219
129
11
138
269
172
101
360
390
262
211
382
258
376
234
225
92
332
243
274
7
412
56
302
456
435
355
55
343
346
307
142
317
300
181
146
190
372
191
282
139
106
193
125
402
399
16
375
349
76
171
85
316
485
287
148
156
240
210
406
418
304
32
40
423
442
154
105
460
94
247
66
454
166
463
486
325
170
254
461
361
207
395
413
31
339
388
96
163
467
365
164
261
264
117
301
201
115
144
20
239
312
356
347
367
128
397
197
89
39
14
137
351
238
111
465
278
62
275
27
151
368
330
45
5
389
205
363
186
83
468
9
440
352
152
303
177
320
426
173
393
331
187
362
127
257
277
167
22
223
377
267
18
64
194
4
180
48
82
478
143
470
159
353
59
420
398
427
198
417
42
46
29
88
13
469
158
34
52
476
481
26
93
380
233
286
140
446
309
145
153
455
484
38
23
441
453
192
157
100
69
71
37
428
407
385
479
411
183
35
174
337
126
160
433
298
113
147
462
271
419
340
123
176
161
28
84
91
185
314
228
19
226
246
344
132
124
149
24
252
232
130
165
179
196
464
348
67
449
251
189
342
237
36
452
345
90
188
384
202
41
366
379
54
220
241
184
333
281
203
324
364
21
135
415
265
136
321
53
431
315
218
134
150
328
70
350
266
432
458
429
354

> <PUBCHEM_CONFORMER_ID>
00000DE700000001

> <PUBCHEM_CONFORMER_RMSD>
0.8

> <PUBCHEM_COORDINATE_TYPE>
2
5
10

> <PUBCHEM_EFFECTIVE_ROTOR_COUNT>
7.2

> <PUBCHEM_FEATURE_SELFOVERLAP>
35.522

> <PUBCHEM_HEAVY_ATOM_COUNT>
26

> <PUBCHEM_ISOTOPIC_ATOM_COUNT>
0

> <PUBCHEM_MMFF94_ENERGY>
63.1694

> <PUBCHEM_MMFF94_PARTIAL_CHARGES>
32
1 -0.18
10 0.27
11 0.27
12 -0.14
14 -0.15
15 -0.15
16 0.06
17 -0.15
18 -0.15
19 0.42
2 -0.19
20 0.18
21 0.09
22 -0.15
23 -0.15
24 -0.15
25 -0.15
26 0.19
3 -0.68
39 0.4
4 -0.57
40 0.15
41 0.15
44 0.15
45 0.15
46 0.15
47 0.15
48 0.15
49 0.15
5 -0.81
6 0.42
9 0.27

> <PUBCHEM_PHARMACOPHORE_FEATURES>
7
1 3 acceptor
1 3 donor
1 4 acceptor
1 5 cation
6 12 14 15 17 18 20 rings
6 21 22 23 24 25 26 rings
6 5 6 7 8 9 10 rings

> <PUBCHEM_SHAPE_FINGERPRINT>
10 15 17385721371220542769
10165383 225 18335419055044158971
10299344 5 12973604443315717258
10391435 84 11167645582555973613
106641 1 10953744408565733942
10670039 82 18335977589513217797
10674148 151 17749105609045637904
10730089 173 18334575733593710753
11135609 99 9943223962371904585
11135926 11 16630535037438499759
11315181 36 8574715711396659503
11646440 116 16153427250836752156
11719270 70 17704354355855356606
11724838 91 9151172056804934242
11796584 16 18408886274260069370
12166972 35 13551193298749729190
12516196 113 11312058746709548971
12664476 115 18411134724257628817
12838862 33 16774069653388966614
13914758 101 18408603643699025656
14150022 121 13046211755246876479
14251752 14 18413387622727762995
14251764 18 13623529060839541250
14251764 46 18186238437825381755
1454969 45 12319735886536998706
14675020 138 18335686257934658570
14849402 71 14924240368685247038
14856354 85 14779551205606782651
14933364 13 18333169470742423945
15119646 104 16630253506305447743
15142383 8 18342458149532587020
15183329 4 17203890756320393931
15716309 27 11458423544439627627
15728490 51 11746944195961795409
1577012 14 17967803943298159691
18335252 98 8502658112815759920
18608769 82 18336549404458246027
19611394 137 17459488813271738003
19841028 212 18262234418792030578
20238998 120 18272370884680446944
20281389 69 18186518808679005789
21033648 29 18339068415276857392
21095086 128 8142089762881835848
21150785 3 14045742625211411851
21267235 1 11819270054026159530
21298829 104 16415491428217852451
21315759 40 14345794954579887027
21365058 27 15719110258165978155
21585482 111 18191867817866460589
21756936 100 18260263067277932315
21792934 111 17847053390719614144
22224240 67 13686296877430162492
23559900 14 17346025796594627563
246663 6 12324240559753322618
28498 318 18272091583119879798
3009799 131 17918274264154596330
3633792 109 18272655641290901634
4073 2 18041001803560746170
4098825 35 18410292536292963851
4325135 7 14620797102675672648
4339292 15 17417240070612286407
5385378 56 17531241721481115050
5758199 1 16442782423178356145
59682541 35 12396306962895970117
5969126 39 15410899535197331713
59755656 520 17676203598388548291
6009941 240 18334577975218785402
6081469 158 18343868789139853214
9953998 17 17603590725703927505

> <PUBCHEM_SHAPE_MULTIPOLES>
512.94
27.8
1.55
1.03
3.06
0.01
0.09
6.74
-0.77
0.77
-0.02
0.48
0.06
0.8

> <PUBCHEM_SHAPE_SELFOVERLAP>
1081.103

> <PUBCHEM_SHAPE_VOLUME>
289.9

> <RelativeEnergy>
6.75478

> <StereoisomerIndex>
1

> <TautomerIndex>
1

> <POSE_NUMBER>
9

> <LibDockScore>
101.7561

> <HotSpots>
7.21,2.27,-14.26,A,20,1
9.41,-1.33,-5.66,A,37,2
9.21,3.67,-12.86,A,26,17

> <-In-Situ Starting Energy>
-251.795588

> <-In-Situ Final Energy>
8.48592475

> <In-Situ Gradient>
0.0008227197289

$$$$
4064
  SciTegic09142310043D

 33 32  0  0  0  0            999 V2000
    5.8204    9.7610   -1.1329 O   0  0  0  1  0  0
    7.2826   11.8260   -2.0499 O   0  0  0  1  0  0
    6.2773   11.0676    0.5994 O   0  0  0  1  0  0
    6.6650   13.6650   -3.0838 O   0  0  0  1  0  0
    4.6764    9.4928    0.6310 N   0  0  0  1  0  0
    6.7647   13.5973   -0.8365 N   0  0  0  1  0  0
    7.6217    9.5823   -2.8079 C   0  0  0  1  0  0
    7.3192    8.4802   -3.8330 C   0  0  0  1  0  0
    7.0602    9.1788   -1.4301 C   0  0  0  1  0  0
    6.9606   10.9197   -3.1091 C   0  0  0  1  0  0
    9.1404    9.7174   -2.7391 C   0  0  0  1  0  0
    8.4053    8.2152   -4.8829 C   0  0  0  1  0  0
    8.2593    6.8459   -5.4787 C   0  0  0  1  0  0
    5.6433   10.1684    0.0739 C   0  0  0  1  0  0
    6.9157   13.0847   -2.0488 C   0  0  0  1  0  0
    4.2328    8.8540    0.0129 H   0  0
    4.3672    9.6577    1.5655 H   0  0
    6.9474   12.9837   -0.0628 H   0  0
    6.4854   14.5480   -0.7216 H   0  0
    6.3415    8.6238   -4.2944 H   0  0
    7.2820    7.5489   -3.2782 H   0  0
    7.7645    9.3947   -0.6241 H   0  0
    6.7739    8.1388   -1.4500 H   0  0
    7.1158   11.3099   -4.1110 H   0  0
    5.9223   10.7636   -3.0400 H   0  0
    9.5969   10.1107   -3.6228 H   0  0
    9.6565    8.7714   -2.7234 H   0  0
    9.4245   10.2251   -1.8387 H   0  0
    9.4160    8.1525   -4.5083 H   0  0
    8.4448    9.0164   -5.6018 H   0  0
    7.4255    6.8276   -6.1727 H   0  0
    8.1071    6.0812   -4.7179 H   0  0
    9.2013    6.6138   -5.9698 H   0  0
  1  9  1  0
  1 14  1  0
  2 10  1  0
  2 15  1  0
  3 14  2  0
  4 15  2  0
  5 14  1  0
  6 15  1  0
  7  8  1  0
  7  9  1  0
  7 10  1  0
  7 11  1  0
  8 12  1  0
 12 13  1  0
  5 16  1  0
  5 17  1  0
  6 18  1  0
  6 19  1  0
  8 20  1  0
  8 21  1  0
  9 22  1  0
  9 23  1  0
 10 24  1  0
 10 25  1  0
 11 26  1  0
 11 27  1  0
 11 28  1  0
 12 29  1  0
 12 30  1  0
 13 31  1  0
 13 32  1  0
 13 33  1  0
M  END
> <Name>
4064

> <Binding Energy>
-5.0418

> <Ligand Energy>
-42.1358

> <Protein Energy>
-7801.1566

> <Complex Energy>
-7848.3342

> <Complex Entropy>
-31.4784

> <Protein Entropy>
-31.4717

> <Ligand Entropy>
-18.5159

> <Entropic Energy>
18.5093

> <AbsoluteEnergy>
30.3283

> <ConfNumber>
10

> <IonizationIndex>
1

> <MOL_NUMBER>
126

> <NumberOfIonizations>
1

> <NumberOfStereoisomers>
1

> <NumberOfTautomers>
1

> <PUBCHEM_ATOM_DEF_STEREO_COUNT>
0

> <PUBCHEM_ATOM_UDEF_STEREO_COUNT>
0

> <PUBCHEM_BOND_DEF_STEREO_COUNT>
0

> <PUBCHEM_BOND_UDEF_STEREO_COUNT>
0

> <PUBCHEM_CACTVS_TAUTO_COUNT>
3

> <PUBCHEM_COMPONENT_COUNT>
1

> <PUBCHEM_COMPOUND_CID>
4064

> <PUBCHEM_CONFORMER_DIVERSEORDER>
1
22
52
17
28
113
80
95
35
127
72
111
12
90
110
117
31
25
81
109
107
98
125
101
45
96
51
5
57
36
119
114
62
84
76
6
122
116
40
88
128
94
120
93
47
41
63
102
34
133
132
42
9
53
126
112
100
131
73
134
103
60
44
29
65
15
78
37
32
68
104
30
20
106
3
118
74
38
123
26
87
4
75
50
54
92
33
70
129
43
108
2
61
86
99
27
79
58
59
23
13
115
55
105
67
14
56
21
11
18
130
89
24
69
83
97
19
39
71
121
48
77
46
91
10
7
82
124
66
64
8
85
49
16

> <PUBCHEM_CONFORMER_ID>
00000FE000000001

> <PUBCHEM_CONFORMER_RMSD>
0.8

> <PUBCHEM_COORDINATE_TYPE>
2
5
10

> <PUBCHEM_EFFECTIVE_ROTOR_COUNT>
8

> <PUBCHEM_FEATURE_SELFOVERLAP>
30.447

> <PUBCHEM_HEAVY_ATOM_COUNT>
15

> <PUBCHEM_ISOTOPIC_ATOM_COUNT>
0

> <PUBCHEM_MMFF94_ENERGY>
27.3092

> <PUBCHEM_MMFF94_PARTIAL_CHARGES>
14
1 -0.43
10 0.28
14 0.78
15 0.78
2 -0.43
3 -0.57
30 0.37
31 0.37
32 0.37
33 0.37
4 -0.57
5 -0.8
6 -0.8
9 0.28

> <PUBCHEM_PHARMACOPHORE_FEATURES>
6
1 11 hydrophobe
1 13 hydrophobe
1 3 acceptor
1 4 acceptor
1 5 donor
1 6 donor

> <PUBCHEM_SHAPE_FINGERPRINT>
14943834 7 17972018259181720051
15490181 7 18047763593664880347
17041 50 18195227040130668559
187816 3 18115020943306217394
20671657 1 17831861253046876714
20711985 344 18411139129865173339
21041028 32 18194419998669318339
21524375 3 17901959538553964728
22620623 9 18060424594939580279
228727 97 18113894987427455082
23402539 116 18339635750007265918
23419403 2 17905576120082024541
23557571 272 18342459287451065806
23558518 356 18188210884139376250
3060560 45 17185025064874756607
3250762 1 17984433944361273383
68419 9 17971732416085788011
68521 5 18410008866492824623
7164475 11 18336253557745710542
7364860 26 17478044321166804075
81228 2 18336559286344167536

> <PUBCHEM_SHAPE_MULTIPOLES>
275.25
5.64
3.54
1.21
4.55
4.33
0.14
-3.34
-1.66
-3.75
-0.22
0.05
-0.11
-0.14

> <PUBCHEM_SHAPE_SELFOVERLAP>
525.824

> <PUBCHEM_SHAPE_VOLUME>
167.5

> <RelativeEnergy>
5.69022

> <StereoisomerIndex>
1

> <TautomerIndex>
1

> <POSE_NUMBER>
1

> <LibDockScore>
104.0095

> <HotSpots>
6.41,13.87,-3.46,P,68,4
4.21,9.07,-0.26,P,84,5
6.21,14.47,-1.25,P,80,6

> <-In-Situ Starting Energy>
-557.651991

> <-In-Situ Final Energy>
-11.1484616

> <In-Situ Gradient>
0.0009636916529

$$$$
4162
  SciTegic09142310043D

 30 30  0  0  0  0            999 V2000
    5.5393   -0.0801    1.6530 O   0  0  0  1  0  0
    6.9878    3.8120   -0.2405 O   0  0  0  1  0  0
    7.1144    1.8573   -1.3506 N   0  0  0  1  0  0
    6.8669    1.7963    1.0978 C   0  0  0  1  0  0
    6.7123   -0.4155   -0.3373 C   0  0  1  1  0  0
    6.2403    0.4174    0.8384 C   0  0  0  1  0  0
    8.2204    1.4061    1.7243 C   0  0  0  1  0  0
    5.8787    2.4840    2.0901 C   0  0  0  1  0  0
    7.0118    2.5912   -0.2245 C   0  0  0  1  0  0
    7.4867    0.4471   -1.3472 C   0  0  0  1  0  0
    7.5289   -1.5749    0.2905 C   0  0  0  1  0  0
    9.1881    2.5037    2.1736 C   0  0  0  1  0  0
    6.2369    3.8636    2.6626 C   0  0  0  1  0  0
    6.9893    2.3693   -2.2012 H   0  0
    5.8237   -0.8167   -0.8253 H   0  0
    7.9885    0.7328    2.5373 H   0  0
    8.7803    0.7905    1.0270 H   0  0
    5.6601    1.8369    2.9379 H   0  0
    4.9173    2.5674    1.5865 H   0  0
    7.3659    0.0852   -2.3682 H   0  0
    8.5414    0.4450   -1.1177 H   0  0
    6.9037   -2.4609    0.4007 H   0  0
    7.9169   -1.3557    1.2874 H   0  0
    8.4081   -1.8495   -0.2856 H   0  0
    8.7891    3.2216    2.8755 H   0  0
    9.5348    3.0397    1.3006 H   0  0
   10.0648    2.0714    2.6548 H   0  0
    6.5104    4.5796    1.8983 H   0  0
    7.0060    3.8646    3.4243 H   0  0
    5.3729    4.2626    3.1737 H   0  0
  1  6  2  0
  2  9  2  0
  3  9  1  0
  3 10  1  0
  4  6  1  0
  4  7  1  0
  4  8  1  0
  4  9  1  0
  5  6  1  0
  5 10  1  0
  5 11  1  0
  7 12  1  0
  8 13  1  0
  3 14  1  0
  5 15  1  0
  7 16  1  0
  7 17  1  0
  8 18  1  0
  8 19  1  0
 10 20  1  0
 10 21  1  0
 11 22  1  0
 11 23  1  0
 11 24  1  0
 12 25  1  0
 12 26  1  0
 12 27  1  0
 13 28  1  0
 13 29  1  0
 13 30  1  0
M  END
> <Name>
4162

> <Binding Energy>
-48.0662

> <Ligand Energy>
27.1134

> <Protein Energy>
-7801.1566

> <Complex Energy>
-7822.1095

> <Complex Entropy>
-31.4765

> <Protein Entropy>
-31.4717

> <Ligand Entropy>
-17.8649

> <Entropic Energy>
17.8601

> <AbsoluteEnergy>
22.3907

> <ConfNumber>
9

> <IonizationIndex>
1

> <MOL_NUMBER>
129

> <NumberOfIonizations>
1

> <NumberOfStereoisomers>
1

> <NumberOfTautomers>
1

> <PUBCHEM_ATOM_DEF_STEREO_COUNT>
0

> <PUBCHEM_ATOM_UDEF_STEREO_COUNT>
1

> <PUBCHEM_BOND_DEF_STEREO_COUNT>
0

> <PUBCHEM_BOND_UDEF_STEREO_COUNT>
0

> <PUBCHEM_CACTVS_TAUTO_COUNT>
4

> <PUBCHEM_COMPONENT_COUNT>
1

> <PUBCHEM_COMPOUND_CID>
4162

> <PUBCHEM_CONFORMER_DIVERSEORDER>
1
6
2
3
4
8
5
7

> <PUBCHEM_CONFORMER_ID>
104200000001

> <PUBCHEM_CONFORMER_RMSD>
0.6

> <PUBCHEM_COORDINATE_TYPE>
2
5
10

> <PUBCHEM_EFFECTIVE_ROTOR_COUNT>
2.8

> <PUBCHEM_FEATURE_SELFOVERLAP>
30.446

> <PUBCHEM_HEAVY_ATOM_COUNT>
13

> <PUBCHEM_ISOTOPIC_ATOM_COUNT>
0

> <PUBCHEM_MMFF94_ENERGY>
29.1888

> <PUBCHEM_MMFF94_PARTIAL_CHARGES>
9
1 -0.57
10 0.3
2 -0.57
21 0.37
3 -0.73
4 0.12
5 0.06
6 0.45
9 0.57

> <PUBCHEM_PHARMACOPHORE_FEATURES>
6
1 1 acceptor
1 12 hydrophobe
1 13 hydrophobe
1 2 acceptor
1 3 donor
6 3 4 5 6 9 10 rings

> <PUBCHEM_SHAPE_FINGERPRINT>
10702982 57 16227475072806271066
12423570 1 17034456860034931052
12524768 44 18059574732501671397
13024252 1 17319061386441211198
137420 1 12921870913742886142
14128692 85 17899421882944529402
161256 15 18273219698501989821
16945 1 18341626922483223740
20511035 2 17971742273299268061
20653091 64 17751361685702633931
21922407 69 17168725032610445369
23211744 25 18264512644504752484
23419403 2 17403789825429062416
23552423 10 17823140012593130643
23559900 14 17196299517890317542
241688 4 18197232548669240489
2748010 2 18127413581906908127
4369600 1 18057333790054197469
5084963 1 17823135618873235311
528886 8 17632302306134306588
68250623 7 18127679646757303362

> <PUBCHEM_SHAPE_MULTIPOLES>
250.81
3.29
1.89
1.51
1.82
0.28
-0.1
-0.29
-0.84
-0.19
0.64
-1
0.14
-0.54

> <PUBCHEM_SHAPE_SELFOVERLAP>
506.779

> <PUBCHEM_SHAPE_VOLUME>
146.2

> <RelativeEnergy>
9.6956

> <StereoisomerIndex>
1

> <TautomerIndex>
1

> <POSE_NUMBER>
1

> <LibDockScore>
74.0072

> <HotSpots>
6.61,-0.93,-0.06,A,65,11
9.21,2.67,2.54,A,84,12
6.61,4.27,3.15,A,86,13

> <-In-Situ Starting Energy>
-2692.44727

> <-In-Situ Final Energy>
2.56254268

> <In-Situ Gradient>
0.0009696978466

$$$$
4472
  SciTegic09142310043D

 39 40  0  0  0  0            999 V2000
    4.2365    0.7308   -0.9543 O   0  0  0  1  0  0
    8.9341   -1.7149   -6.0298 O   0  0  0  1  0  0
    6.3158    1.4292   -0.4187 N   0  0  0  1  0  0
    7.5886    0.0779   -4.3558 N   0  0  0  1  0  0
    8.9706    0.0807   -4.7035 N   0  5  0  1  0  0
   13.1967    0.6033   -7.4291 N   0  0  0  1  0  0
    5.8590    0.7391   -2.7415 C   0  0  0  1  0  0
    7.3599    0.5941   -2.9996 C   0  0  0  1  0  0
    5.9062    1.5540    0.9768 C   0  0  0  1  0  0
    5.3973    0.9659   -1.2881 C   0  0  0  1  0  0
    6.8850    2.3058    1.8289 C   0  0  0  1  0  0
    8.2323    1.9638    1.8341 C   0  0  0  1  0  0
    6.4437    3.3296    2.6605 C   0  0  0  1  0  0
    9.1183    2.6287    2.6709 C   0  0  0  1  0  0
    7.3247    3.9852    3.5032 C   0  0  0  1  0  0
    9.5291   -0.7216   -5.6407 C   0  0  0  1  0  0
    8.6578    3.6214    3.5187 C   0  0  0  1  0  0
   10.8254   -0.2706   -6.1993 C   0  0  0  1  0  0
   11.3844    0.9789   -5.9174 C   0  0  0  1  0  0
   11.4839   -1.0580   -7.1325 C   0  0  0  1  0  0
   12.5607    1.3648   -6.5421 C   0  0  0  1  0  0
   12.6529   -0.5840   -7.7167 C   0  0  0  1  0  0
    7.2419    1.6613   -0.7113 H   0  0
    7.0385   -0.7532   -4.5481 H   0  0
    5.5187    1.5707   -3.3394 H   0  0
    5.3244   -0.1311   -3.1128 H   0  0
    7.8568    1.5617   -2.9154 H   0  0
    7.8365   -0.0701   -2.2839 H   0  0
    4.9355    2.0532    1.0021 H   0  0
    5.7824    0.5429    1.3691 H   0  0
    8.5939    1.1650    1.2032 H   0  0
    5.4068    3.6236    2.6726 H   0  0
   10.1629    2.3567    2.6950 H   0  0
    6.9792    4.7827    4.1449 H   0  0
    9.3412    4.1358    4.1747 H   0  0
   10.9227    1.6824   -5.2441 H   0  0
   11.1042   -2.0300   -7.4042 H   0  0
   12.9820    2.3313   -6.3040 H   0  0
   13.1620   -1.2202   -8.4260 H   0  0
  1 10  2  0
  2 16  2  0
  3  9  1  0
  3 10  1  0
  4  5  1  0
  4  8  1  0
  5 16  1  0
  6 21  2  0
  6 22  1  0
  7  8  1  0
  7 10  1  0
  9 11  1  0
 11 12  2  0
 11 13  1  0
 12 14  1  0
 13 15  2  0
 14 17  2  0
 15 17  1  0
 16 18  1  0
 18 19  2  0
 18 20  1  0
 19 21  1  0
 20 22  2  0
  3 23  1  0
  4 24  1  0
  7 25  1  0
  7 26  1  0
  8 27  1  0
  8 28  1  0
  9 29  1  0
  9 30  1  0
 12 31  1  0
 13 32  1  0
 14 33  1  0
 15 34  1  0
 17 35  1  0
 19 36  1  0
 20 37  1  0
 21 38  1  0
 22 39  1  0
M  CHG  1   5  -1
M  END
> <Name>
4472

> <Binding Energy>
-24.3298

> <Ligand Energy>
-8.8426

> <Protein Energy>
-7801.1566

> <Complex Energy>
-7834.329

> <Complex Entropy>
-31.48

> <Protein Entropy>
-31.4717

> <Ligand Entropy>
-19.8005

> <Entropic Energy>
19.7921

> <AbsoluteEnergy>
30.761

> <ConfNumber>
10

> <Ionization pH>
7.5

> <IonizationIndex>
1

> <MOL_NUMBER>
131

> <NumberOfIonizations>
1

> <NumberOfStereoisomers>
1

> <NumberOfTautomers>
1

> <PUBCHEM_ATOM_DEF_STEREO_COUNT>
0

> <PUBCHEM_ATOM_UDEF_STEREO_COUNT>
0

> <PUBCHEM_BOND_DEF_STEREO_COUNT>
0

> <PUBCHEM_BOND_UDEF_STEREO_COUNT>
0

> <PUBCHEM_CACTVS_TAUTO_COUNT>
6

> <PUBCHEM_COMPONENT_COUNT>
1

> <PUBCHEM_COMPOUND_CID>
4472

> <PUBCHEM_CONFORMER_DIVERSEORDER>
1
396
406
394
16
410
63
268
164
411
54
47
329
330
414
134
13
378
62
353
389
237
257
297
143
133
431
19
266
188
294
393
340
417
175
432
126
65
18
195
144
386
99
203
235
14
91
261
176
405
153
293
124
364
87
192
137
75
45
420
216
8
419
159
150
284
271
110
422
145
281
412
74
158
372
95
106
259
367
242
187
427
434
231
81
84
196
3
33
310
178
295
243
104
288
200
379
21
296
6
107
169
23
49
433
78
423
228
384
88
5
395
155
2
302
402
29
274
363
245
58
118
116
418
156
277
219
102
387
27
83
120
218
375
140
262
35
172
286
7
390
287
428
342
208
11
269
241
103
244
52
350
256
71
381
160
173
426
15
247
70
40
26
132
403
226
152
202
112
251
409
312
170
371
9
210
34
191
189
43
57
151
41
382
429
73
117
12
108
301
365
101
300
105
332
201
424
352
408
77
348
50
229
177
246
324
341
207
199
292
254
309
331
399
354
214
376
263
157
168
415
39
283
225
380
204
82
289
109
68
121
46
370
407
44
127
236
317
385
368
32
250
85
349
303
190
233
270
305
377
61
248
55
326
181
298
17
198
180
366
362
69
60
86
323
327
206
98
97
325
122
351
230
339
224
38
90
28
347
255
37
115
162
163
223
113
267
320
240
25
24
111
358
369
328
92
59
400
147
313
249
359
76
197
67
142
265
234
232
333
100
227
316
280
22
279
30
285
421
209
31
373
185
304
174
10
282
131
290
193
4
166
322
264
404
217
238
20
66
275
136
171
361
56
89
413
306
318
205
51
179
53
253
336
314
391
212
278
64
346
260
392
252
36
401
272
315
119
430
148
128
239
125
308
335
94
273
141
165
343
72
356
416
154
211
186
222
194
355
135
388
114
307
357
345
220
435
319
321
398
360
213
338
397
383
123
139
183
337
146
130
258
374
129
80
344
167
182
161
48
276
299
311
291
138
149
184
79
425
96
42
93
215
221
334

> <PUBCHEM_CONFORMER_ID>
117800000001

> <PUBCHEM_CONFORMER_RMSD>
0.8

> <PUBCHEM_COORDINATE_TYPE>
2
5
10

> <PUBCHEM_EFFECTIVE_ROTOR_COUNT>
9

> <PUBCHEM_FEATURE_SELFOVERLAP>
42.082

> <PUBCHEM_HEAVY_ATOM_COUNT>
22

> <PUBCHEM_ISOTOPIC_ATOM_COUNT>
0

> <PUBCHEM_MMFF94_ENERGY>
44.7785

> <PUBCHEM_MMFF94_PARTIAL_CHARGES>
34
1 -0.57
10 0.57
11 -0.14
12 -0.15
13 -0.15
14 -0.15
15 -0.15
16 0.54
17 -0.15
18 0.09
19 -0.15
2 -0.57
20 -0.15
21 0.16
22 0.16
29 0.37
3 -0.73
30 0.36
31 0.15
32 0.15
33 0.37
34 0.15
35 0.15
36 0.15
37 0.15
38 0.15
39 0.15
4 -0.64
40 0.15
5 -0.42
6 -0.62
7 0.06
8 0.27
9 0.44

> <PUBCHEM_PHARMACOPHORE_FEATURES>
8
1 1 acceptor
1 2 acceptor
1 3 donor
1 4 donor
1 5 donor
1 6 acceptor
6 11 12 13 14 15 17 rings
6 6 18 19 20 21 22 rings

> <PUBCHEM_SHAPE_FINGERPRINT>
10087517 78 10159703486749778667
10299344 5 18113340795059608033
10693767 8 17388252348409937610
11524674 6 17274821368199245487
11646440 116 17060621092596601122
11963148 33 18410004412813276974
13167372 99 11600003258654502202
13668630 136 18408888400183724758
13673619 4 18411416228650257585
13685833 64 17989768887001695016
13690498 29 18040148514218834045
14123256 34 18341897402306687857
14251764 18 13110955431557545345
14251764 30 18342174453583323032
14344974 204 17915738872178504687
14347424 109 12031790237269399686
14556957 393 16298394517579911741
14598715 104 11025798742497021358
14729087 3 8718825379642740422
14767858 380 17240203231212363272
15003188 100 14923952266921904406
15183329 4 16587740940830539770
15348495 7 16415189135339524563
15352257 5 18271810103194477102
15461852 350 11169923787897289945
15876981 60 17458631060468074805
16079462 125 12324242771577161964
17780758 139 17846781806815195993
18927931 339 18410289221226837117
20281389 69 9079117765111650989
20621476 21 18201723972091012647
21130935 74 13182729343522791396
21150785 3 15574716915191702089
21196832 93 16951422081503396339
21315759 40 18041278769227302050
21623969 137 17132117931351439094
21774942 28 11458689609000301534
220451 1 18040995090600533409
2303208 19 18131346406055712768
23081809 10 17095801023526270888
23424782 7 18335139838772106552
23522609 53 17970374562212821500
2748736 6 9223230745421485331
2767999 5 9223232944549904451
312425 54 15769770277621736662
351380 3 18334571356684120865
3663271 9 13829838141246608548
445580 167 17385731326337673788
465052 167 18273216404699852476
5104073 3 14548436081713925742
54076057 127 17774160244827303648
543368 44 8430325641187256055
57307002 103 17774153660204608632
636775 8 18272099279759251582
8863177 126 18272082859228788587
9995097 26 18131641076247740278
999808 66 17988926660503949198

> <PUBCHEM_SHAPE_MULTIPOLES>
421.09
23.86
1.86
1.39
9.81
0.26
0.05
13.64
0.87
-3.24
0.04
1.1
0.23
0.26

> <PUBCHEM_SHAPE_SELFOVERLAP>
881.023

> <PUBCHEM_SHAPE_VOLUME>
235.3

> <RelativeEnergy>
2.38859

> <StereoisomerIndex>
1

> <TautomerIndex>
1

> <POSE_NUMBER>
1

> <LibDockScore>
107.8678

> <HotSpots>
8.61,-2.33,-5.66,P,54,2
6.01,0.67,0.55,A,70,9
7.21,3.07,2.94,A,85,15

> <-In-Situ Starting Energy>
-398.662008

> <-In-Situ Final Energy>
39.9528816

> <In-Situ Gradient>
0.0007877386599

$$$$
4619
  SciTegic09142310043D

 58 58  0  0  0  0            999 V2000
   12.3739    0.9944  -12.9754 O   0  0  0  1  0  0
   12.1268    1.6574  -10.8508 O   0  0  0  1  0  0
   13.1619   -2.5661  -13.2199 O   0  0  0  1  0  0
   14.1920   -5.9442  -14.5982 N   0  3  0  1  0  0
   11.3735    3.1876  -12.5957 C   0  0  0  1  0  0
   11.4134    4.2464  -11.4502 C   0  0  0  1  0  0
   12.1570    3.7112  -13.8347 C   0  0  0  1  0  0
    9.9517    2.8760  -13.0431 C   0  0  0  1  0  0
   11.9995    1.8671  -12.0502 C   0  0  0  1  0  0
   12.8096    4.6743  -10.9605 C   0  0  0  1  0  0
   11.3738    4.7448  -14.6761 C   0  0  0  1  0  0
    9.7410    2.0234  -14.1181 C   0  0  0  1  0  0
    8.8374    3.5201  -12.5154 C   0  0  0  1  0  0
   12.8902   -0.2635  -12.5365 C   0  0  0  1  0  0
    8.4954    1.9036  -14.7142 C   0  0  0  1  0  0
    7.5719    3.3169  -13.0511 C   0  0  0  1  0  0
   14.1145   -4.7061  -13.8408 C   0  0  0  1  0  0
   12.5866   -1.3265  -13.5955 C   0  0  0  1  0  0
   13.1487   -3.5663  -14.2163 C   0  0  0  1  0  0
    7.3946    2.4897  -14.1321 C   0  0  0  1  0  0
   15.4000   -6.7239  -14.2473 C   0  0  0  1  0  0
   12.9636   -6.7318  -14.3918 C   0  0  0  1  0  0
   16.0751   -7.3395  -15.4746 C   0  0  0  1  0  0
   12.9315   -8.0573  -15.1478 C   0  0  0  1  0  0
   14.2935   -5.6452  -15.5487 H   0  0
   10.8924    5.1508  -11.7596 H   0  0
   10.8663    3.8657  -10.5851 H   0  0
   13.1075    4.1370  -13.5233 H   0  0
   12.4381    2.8951  -14.5009 H   0  0
   13.3686    5.2194  -11.7193 H   0  0
   13.4107    3.8215  -10.6456 H   0  0
   12.7194    5.3386  -10.1007 H   0  0
   10.6543    5.3088  -14.0866 H   0  0
   10.7952    4.2649  -15.4615 H   0  0
   12.0343    5.4523  -15.1723 H   0  0
   10.5778    1.4771  -14.5200 H   0  0
    8.9474    4.1989  -11.6900 H   0  0
   12.4606   -0.5622  -11.5774 H   0  0
   13.9684   -0.1651  -12.4061 H   0  0
    8.3563    1.3020  -15.5983 H   0  0
    6.7011    3.8125  -12.6677 H   0  0
   15.1097   -4.2739  -13.9292 H   0  0
   13.9070   -5.0355  -12.8359 H   0  0
   11.5093   -1.4395  -13.7242 H   0  0
   12.9951   -0.9959  -14.5516 H   0  0
   13.4839   -3.1013  -15.1414 H   0  0
   12.1285   -3.9256  -14.3442 H   0  0
    6.4048    2.3101  -14.5227 H   0  0
   16.1335   -6.0877  -13.7485 H   0  0
   15.1399   -7.4905  -13.5184 H   0  0
   12.8486   -6.9128  -13.3256 H   0  0
   12.1045   -6.1303  -14.6770 H   0  0
   16.5768   -6.5811  -16.0770 H   0  0
   15.3837   -7.8737  -16.1228 H   0  0
   16.8276   -8.0523  -15.1521 H   0  0
   13.7390   -8.7230  -14.8588 H   0  0
   13.0155   -7.8907  -16.2196 H   0  0
   12.0039   -8.5870  -14.9408 H   0  0
  1  9  1  0
  1 14  1  0
  2  9  2  0
  3 18  1  0
  3 19  1  0
  4 17  1  0
  4 21  1  0
  4 22  1  0
  5  6  1  0
  5  7  1  0
  5  8  1  0
  5  9  1  0
  6 10  1  0
  7 11  1  0
  8 12  2  0
  8 13  1  0
 12 15  1  0
 13 16  2  0
 14 18  1  0
 15 20  2  0
 16 20  1  0
 17 19  1  0
 21 23  1  0
 22 24  1  0
  4 25  1  0
  6 26  1  0
  6 27  1  0
  7 28  1  0
  7 29  1  0
 10 30  1  0
 10 31  1  0
 10 32  1  0
 11 33  1  0
 11 34  1  0
 11 35  1  0
 12 36  1  0
 13 37  1  0
 14 38  1  0
 14 39  1  0
 15 40  1  0
 16 41  1  0
 17 42  1  0
 17 43  1  0
 18 44  1  0
 18 45  1  0
 19 46  1  0
 19 47  1  0
 20 48  1  0
 21 49  1  0
 21 50  1  0
 22 51  1  0
 22 52  1  0
 23 53  1  0
 23 54  1  0
 23 55  1  0
 24 56  1  0
 24 57  1  0
 24 58  1  0
M  CHG  1   4   1
M  END
> <Name>
4619

> <Binding Energy>
-26.2016

> <Ligand Energy>
47.2405

> <Protein Energy>
-7801.1566

> <Complex Energy>
-7780.1177

> <Complex Entropy>
-31.4844

> <Protein Entropy>
-31.4717

> <Ligand Entropy>
-20.0363

> <Entropic Energy>
20.0237

> <AbsoluteEnergy>
60.5488

> <ConfNumber>
101

> <Ionization pH>
7.5

> <IonizationIndex>
1

> <MOL_NUMBER>
139

> <NumberOfIonizations>
1

> <NumberOfStereoisomers>
1

> <NumberOfTautomers>
1

> <PUBCHEM_ATOM_DEF_STEREO_COUNT>
0

> <PUBCHEM_ATOM_UDEF_STEREO_COUNT>
0

> <PUBCHEM_BOND_DEF_STEREO_COUNT>
0

> <PUBCHEM_BOND_UDEF_STEREO_COUNT>
0

> <PUBCHEM_CACTVS_TAUTO_COUNT>
1

> <PUBCHEM_COMPONENT_COUNT>
1

> <PUBCHEM_COMPOUND_CID>
4619

> <PUBCHEM_CONFORMER_DIVERSEORDER>
1
25
18
59
63
35
33
26
75
50
62
51
44
73
23
37
70
74
11
79
2
42
12
78
55
76
32
71
4
66
77
72
80
41
17
65
9
60
43
45
54
58
19
49
57
48
5
6
34
67
39
14
56
22
29
15
10
16
7
3
30
46
52
53
38
64
27
40
31
36
13
68
28
47
69
24
61
8
21
20

> <PUBCHEM_CONFORMER_ID>
0000120B00000001

> <PUBCHEM_CONFORMER_RMSD>
1.2

> <PUBCHEM_COORDINATE_TYPE>
2
5
10

> <PUBCHEM_EFFECTIVE_ROTOR_COUNT>
13

> <PUBCHEM_FEATURE_SELFOVERLAP>
30.446

> <PUBCHEM_HEAVY_ATOM_COUNT>
24

> <PUBCHEM_ISOTOPIC_ATOM_COUNT>
0

> <PUBCHEM_MMFF94_ENERGY>
53.9199

> <PUBCHEM_MMFF94_PARTIAL_CHARGES>
23
1 -0.43
12 -0.15
13 -0.15
14 0.28
15 -0.15
16 -0.15
17 0.27
18 0.28
19 0.28
2 -0.57
20 -0.15
21 0.27
22 0.27
3 -0.56
35 0.15
36 0.15
4 -0.81
41 0.15
42 0.15
47 0.15
5 0.2
8 -0.14
9 0.66

> <PUBCHEM_PHARMACOPHORE_FEATURES>
6
1 10 hydrophobe
1 11 hydrophobe
1 2 acceptor
1 3 acceptor
1 4 cation
6 8 12 13 15 16 20 rings

> <PUBCHEM_SHAPE_FINGERPRINT>
10366900 7 17530688718539763914
11221954 11 17472974008767315041
11578080 2 16589695752963202895
12156800 1 14864632686579255160
12422481 6 18339662078762893665
12539773 59 18057609969415210489
12553582 1 18265323092275861580
12592029 89 18335977589306937377
12633257 1 18187373099080536427
13122387 1 18337950095813296420
13402501 40 18270404871973994694
14114207 22 14212050042703361624
14251751 93 18409442566248640999
14251757 5 18336282180161846878
15403338 16 16953641767703924443
19026451 147 17259029306033370950
19319366 153 17749679601233519034
19930381 70 18408321098716769543
20771845 140 16628581291972281975
20905425 154 17906731406307781558
23227448 37 18338795753088306367
3298306 158 18046892797730880333
445580 8 18339924805432072512
474 4 18342467997513288979
539174 4 17771363975454593643
6287921 2 17844824598165018215
7064713 232 18131636655518688657

> <PUBCHEM_SHAPE_MULTIPOLES>
471.32
8.87
3.86
1.74
5.55
0.99
0.79
-0.91
1.88
0.3
-1.21
-0.27
-0.32
-0.74

> <PUBCHEM_SHAPE_SELFOVERLAP>
933.609

> <PUBCHEM_SHAPE_VOLUME>
281.4

> <RelativeEnergy>
15.8955

> <StereoisomerIndex>
1

> <TautomerIndex>
1

> <POSE_NUMBER>
1

> <LibDockScore>
109.5334

> <HotSpots>
9.21,3.67,-12.86,A,26,13
15.61,-6.73,-13.65,A,23,21
12.61,-6.33,-13.65,A,24,24

> <-In-Situ Starting Energy>
-652.262771

> <-In-Situ Final Energy>
2.61959099

> <In-Situ Gradient>
0.0008644611419

$$$$
4679
  SciTegic09142310043D

 41 43  0  0  0  0            999 V2000
   15.3217    5.0240  -10.2649 S   0  0  0  1  0  0
    8.2347    2.0965  -14.9320 F   0  0  0  1  0  0
    6.8213    2.1600  -13.2974 F   0  0  0  1  0  0
   12.6960    6.3670   -6.7460 O   0  0  0  1  0  0
    8.9754    2.2840  -12.8387 O   0  0  0  1  0  0
   15.8410    6.2585  -10.9197 O   0  0  0  1  0  0
   11.9624    4.6098   -4.6911 O   0  0  0  1  0  0
   13.1118    3.6359  -10.6898 N   0  0  0  1  0  0
   13.7428    5.0292  -12.3857 N   0  0  0  1  0  0
   14.1176    3.2678   -7.9853 N   0  0  0  1  0  0
   12.1517    3.5645  -11.6746 C   0  0  0  1  0  0
   13.9721    4.5237  -11.1769 C   0  0  0  1  0  0
   12.5637    4.4055  -12.7577 C   0  0  0  1  0  0
   14.3198    5.5618   -8.8552 C   0  0  0  1  0  0
   13.7829    4.5611   -7.8644 C   0  0  0  1  0  0
   10.9790    2.8743  -11.7458 C   0  0  0  1  0  0
   11.8008    4.4697  -13.8876 C   0  0  0  1  0  0
   13.0112    5.0249   -6.8117 C   0  0  0  1  0  0
   10.1795    2.9701  -12.8772 C   0  0  0  1  0  0
   10.6131    3.7484  -13.9594 C   0  0  0  1  0  0
   12.6311    4.1435   -5.8120 C   0  0  0  1  0  0
   12.9728    2.8060   -5.9353 C   0  0  0  1  0  0
   13.7064    2.4119   -7.0451 C   0  0  0  1  0  0
   11.3847    6.5823   -7.2207 C   0  0  0  1  0  0
    7.9736    2.6334  -13.7366 C   0  0  0  1  0  0
   12.9068    5.0041   -3.7124 C   0  0  0  1  0  0
   14.2895    5.6777  -12.8744 H   0  0
   14.9369    6.2538   -8.2861 H   0  0
   13.4917    6.1613   -9.2343 H   0  0
   10.6671    2.2581  -10.9152 H   0  0
   12.1122    5.0738  -14.7287 H   0  0
   10.0549    3.8015  -14.8749 H   0  0
   12.6881    2.0901   -5.1801 H   0  0
   13.9752    1.3697   -7.1485 H   0  0
   10.6588    6.2749   -6.4690 H   0  0
   11.2034    6.0416   -8.1519 H   0  0
   11.2315    7.6388   -7.4290 H   0  0
    7.8635    3.7151  -13.7880 H   0  0
   12.3916    5.4132   -2.8453 H   0  0
   13.5843    5.7690   -4.0952 H   0  0
   13.5018    4.1512   -3.3833 H   0  0
  1  6  2  0
  1 12  1  0
  1 14  1  0
  2 25  1  0
  3 25  1  0
  4 18  1  0
  4 24  1  0
  5 19  1  0
  5 25  1  0
  7 21  1  0
  7 26  1  0
  8 11  1  0
  8 12  2  0
  9 12  1  0
  9 13  1  0
 10 15  2  0
 10 23  1  0
 11 13  1  0
 11 16  2  0
 13 17  2  0
 14 15  1  0
 15 18  1  0
 16 19  1  0
 17 20  1  0
 18 21  2  0
 19 20  2  0
 21 22  1  0
 22 23  2  0
  9 27  1  0
 14 28  1  0
 14 29  1  0
 16 30  1  0
 17 31  1  0
 20 32  1  0
 22 33  1  0
 23 34  1  0
 24 35  1  0
 24 36  1  0
 24 37  1  0
 25 38  1  0
 26 39  1  0
 26 40  1  0
 26 41  1  0
M  END
> <Name>
4679

> <Binding Energy>
-57.6611

> <Ligand Energy>
22.2887

> <Protein Energy>
-7801.1566

> <Complex Energy>
-7836.529

> <Complex Entropy>
-31.4849

> <Protein Entropy>
-31.4717

> <Ligand Entropy>
-20.1306

> <Entropic Energy>
20.1174

> <AbsoluteEnergy>
78.9935

> <ConfNumber>
114

> <Ionization pH>
8.16_DD

> <IonizationIndex>
2

> <MOL_NUMBER>
142

> <NumberOfIonizations>
2

> <NumberOfStereoisomers>
1

> <NumberOfTautomers>
2

> <PUBCHEM_ATOM_DEF_STEREO_COUNT>
0

> <PUBCHEM_ATOM_UDEF_STEREO_COUNT>
1

> <PUBCHEM_BOND_DEF_STEREO_COUNT>
0

> <PUBCHEM_BOND_UDEF_STEREO_COUNT>
0

> <PUBCHEM_CACTVS_TAUTO_COUNT>
2

> <PUBCHEM_COMPONENT_COUNT>
1

> <PUBCHEM_COMPOUND_CID>
4679

> <PUBCHEM_CONFORMER_DIVERSEORDER>
1
150
76
83
146
64
17
171
170
117
134
80
102
92
107
99
106
129
81
69
168
118
50
66
151
164
63
154
44
136
142
105
9
109
27
65
36
165
58
41
100
115
84
52
93
91
139
49
126
72
163
116
57
75
143
108
174
54
175
131
114
62
38
162
51
149
2
23
103
176
29
8
48
30
125
160
137
120
90
132
28
87
124
16
104
4
172
167
7
159
70
12
94
127
10
85
98
73
157
97
60
19
138
71
15
96
111
169
18
95
158
40
152
13
130
55
161
156
34
59
24
56
135
173
42
45
67
6
32
144
113
78
128
89
5
155
86
101
47
61
141
147
122
53
37
39
68
79
153
140
148
43
77
14
145
123
31
121
110
166
133
3
82
20
119
88
33
35
22
25
26
21
112
74
11
46

> <PUBCHEM_CONFORMER_ID>
124700000001

> <PUBCHEM_CONFORMER_RMSD>
0.8

> <PUBCHEM_COORDINATE_TYPE>
2
5
10

> <PUBCHEM_EFFECTIVE_ROTOR_COUNT>
7

> <PUBCHEM_FEATURE_SELFOVERLAP>
50.859

> <PUBCHEM_HEAVY_ATOM_COUNT>
26

> <PUBCHEM_ISOTOPIC_ATOM_COUNT>
0

> <PUBCHEM_MMFF94_ENERGY>
84.9851

> <PUBCHEM_MMFF94_PARTIAL_CHARGES>
32
1 0.3
10 -0.62
11 -0.15
12 0.2
13 0.23
14 0.34
15 0.17
16 -0.15
17 -0.15
18 0.08
19 0.08
2 -0.34
20 -0.15
21 0.08
22 -0.15
23 0.16
24 0.28
25 0.96
26 0.28
29 0.27
3 -0.34
30 0.15
31 0.15
32 0.15
33 0.15
34 0.15
4 -0.36
5 -0.36
6 -0.5
7 -0.36
8 0.03
9 -0.57

> <PUBCHEM_PHARMACOPHORE_FEATURES>
10
1 10 acceptor
1 4 acceptor
1 5 acceptor
1 6 acceptor
1 7 acceptor
1 8 donor
3 8 9 12 cation
5 8 9 11 12 13 rings
6 10 15 18 21 22 23 rings
6 11 13 16 17 19 20 rings

> <PUBCHEM_SHAPE_FINGERPRINT>
10595046 47 18341050722671752083
10906281 52 17968957356818371082
11315181 36 18410293631968287321
12107183 9 17547011823526410803
12166972 35 9295281742775171278
12236239 1 18413108329404690562
12516196 113 18113339699695468837
12596602 18 18202003201158153544
13631057 29 18340767156452689107
14251764 18 18410575084663078916
14394314 77 18337394842837538849
1454969 45 18260551139012751372
14849402 71 18338521958167631864
15131766 46 14564531897791911750
15183329 4 18260824895611704699
15419008 47 15841548553009562883
15461852 350 17346590873258720405
15728490 51 18410855499279025598
1577012 14 18341050727188232827
17093844 174 15719111366747749597
17857418 61 18408602543971230203
18681886 176 17846211185079408640
19377110 9 18187357702223978400
19489759 90 17846497007428055961
20511986 3 18335409145900414579
21033648 29 15864067702435072141
21065198 48 18341049622970278547
21150785 3 18272086110482069446
21315763 178 18187366497594320298
22224240 67 18187363247184876514
23081809 10 18341329998445917514
23522609 53 18194147181904369768
23559900 14 18269828874015449105
24771293 8 18335143120486161364
300161 21 18335139765245706259
3009799 131 16515682238664662548
328311 84 13110963136850050988
34797466 226 17274829077116758824
4073 2 18260838115584755162
4325135 7 18333731321437399390
4340502 62 15574435419315135930
504579 68 18413107281575069701
5758199 1 18334580153246602626
59755656 520 12463566279621662741
67856867 119 18338801220623852465

> <PUBCHEM_SHAPE_MULTIPOLES>
485.95
21.21
2.01
1.14
15.07
0.51
0.18
-1.46
1.8
-1.59
-0.31
-1.05
-0.14
-2.29

> <PUBCHEM_SHAPE_SELFOVERLAP>
1035.269

> <PUBCHEM_SHAPE_VOLUME>
274.3

> <RelativeEnergy>
9.6

> <StereoisomerIndex>
1

> <TautomerIndex>
1

> <POSE_NUMBER>
4

> <LibDockScore>
103.1268

> <HotSpots>
7.21,2.27,-14.26,A,20,3
9.21,3.67,-12.86,A,26,20
13.41,5.07,-3.25,A,44,22

> <-In-Situ Starting Energy>
-871261.286

> <-In-Situ Final Energy>
9.20917557

> <In-Situ Gradient>
0.003624220345

$$$$
4754
  SciTegic09142310043D

 26 26  0  0  0  0            999 V2000
    6.3504   11.8904   -0.0978 O   0  0  0  1  0  0
    9.5827    9.1442   -3.9849 O   0  0  0  1  0  0
    7.3593    8.2502   -4.0607 N   0  0  0  1  0  0
    6.9098    9.1316   -3.1431 C   0  0  0  1  0  0
    6.4990   10.9978   -1.1428 C   0  0  0  1  0  0
    6.9103   10.4756   -3.4444 C   0  0  0  1  0  0
    6.5247    8.7119   -1.8811 C   0  0  0  1  0  0
    6.7164   11.4035   -2.4476 C   0  0  0  1  0  0
    6.3562    9.6460   -0.8671 C   0  0  0  1  0  0
    6.5897   13.2738   -0.3042 C   0  0  0  1  0  0
    6.6028   13.8935    1.0839 C   0  0  0  1  0  0
    8.6556    8.2633   -4.4261 C   0  0  0  1  0  0
    9.1597    7.1769   -5.3593 C   0  0  0  1  0  0
    9.3415    9.5200   -3.1470 H   0  0
    7.0698   10.7970   -4.4547 H   0  0
    6.3955    7.6588   -1.6841 H   0  0
    6.7039   12.4495   -2.7043 H   0  0
    6.1227    9.3283    0.1388 H   0  0
    7.4793   13.4508   -0.8742 H   0  0
    5.8434   13.7634   -0.9031 H   0  0
    7.0536   13.1873    1.7813 H   0  0
    5.5790   14.1310    1.3587 H   0  0
    7.1465   14.8192    1.2088 H   0  0
    9.8630    6.5324   -4.8331 H   0  0
    9.6601    7.6183   -6.2194 H   0  0
    8.3101    6.5795   -5.6824 H   0  0
  1  5  1  0
  1 10  1  0
  2 12  1  0
  3  4  1  0
  3 12  2  0
  4  6  2  0
  4  7  1  0
  5  8  2  0
  5  9  1  0
  6  8  1  0
  7  9  2  0
 10 11  1  0
 12 13  1  0
  2 14  1  0
  6 15  1  0
  7 16  1  0
  8 17  1  0
  9 18  1  0
 10 19  1  0
 10 20  1  0
 11 21  1  0
 11 22  1  0
 11 23  1  0
 13 24  1  0
 13 25  1  0
 13 26  1  0
M  END
> <Name>
4754

> <Binding Energy>
-21.0715

> <Ligand Energy>
3.072

> <Protein Energy>
-7801.1566

> <Complex Energy>
-7819.1562

> <Complex Entropy>
-31.4772

> <Protein Entropy>
-31.4717

> <Ligand Entropy>
-18.0212

> <Entropic Energy>
18.0157

> <AbsoluteEnergy>
37.5465

> <ConfNumber>
1

> <Ionization pH>
7.5

> <IonizationIndex>
1

> <MOL_NUMBER>
146

> <NumberOfIonizations>
1

> <NumberOfStereoisomers>
1

> <NumberOfTautomers>
2

> <PUBCHEM_ATOM_DEF_STEREO_COUNT>
0

> <PUBCHEM_ATOM_UDEF_STEREO_COUNT>
0

> <PUBCHEM_BOND_DEF_STEREO_COUNT>
0

> <PUBCHEM_BOND_UDEF_STEREO_COUNT>
0

> <PUBCHEM_CACTVS_TAUTO_COUNT>
2

> <PUBCHEM_COMPONENT_COUNT>
1

> <PUBCHEM_COMPOUND_CID>
4754

> <PUBCHEM_CONFORMER_DIVERSEORDER>
2
7
8
1
4
5
3
6

> <PUBCHEM_CONFORMER_ID>
129200000002

> <PUBCHEM_CONFORMER_RMSD>
0.6

> <PUBCHEM_COORDINATE_TYPE>
2
5
10

> <PUBCHEM_EFFECTIVE_ROTOR_COUNT>
4

> <PUBCHEM_FEATURE_SELFOVERLAP>
20.297

> <PUBCHEM_HEAVY_ATOM_COUNT>
13

> <PUBCHEM_ISOTOPIC_ATOM_COUNT>
0

> <PUBCHEM_MMFF94_ENERGY>
39.6564

> <PUBCHEM_MMFF94_PARTIAL_CHARGES>
17
1 -0.36
10 0.28
12 0.57
13 0.06
14 0.15
15 0.15
16 0.15
17 0.15
2 -0.57
20 0.37
3 -0.55
4 0.12
5 0.08
6 -0.15
7 -0.15
8 -0.15
9 -0.15

> <PUBCHEM_PHARMACOPHORE_FEATURES>
4
1 1 acceptor
1 2 acceptor
1 3 donor
6 4 5 6 7 8 9 rings

> <PUBCHEM_SHAPE_FINGERPRINT>
10130415 120 18186801400584557728
11062470 55 16702586029974055718
11132069 177 18412546500616932102
11401426 45 18341889701419698663
12032990 46 18410018706104761062
12119455 92 17132110234843786924
12251169 10 18334857242212598634
124424 183 17676488362898074977
13214271 11 18341890800994773055
13380535 76 18409452487760738371
13675066 3 18411419518494492306
13690532 89 18334295374596119726
13922767 16 18272650168832673032
14123238 8 18413670222843486774
14252887 29 18201450150761841014
14325111 11 18410578370655997293
15048467 5 13614524064692124386
15536298 74 18271810056144807694
17802600 8 18410571803846440325
17834076 25 14620797110753962730
18522853 276 18341897385564707585
187816 3 10087642615435032150
200 152 18272643559489609543
20645477 70 16701752557664456934
23402539 116 18343575248545031757
23402655 69 18269828741024456693
23463225 33 18333732394904975054
23557571 272 12031521985516143218
265663 24 17894348886501652043
366044 4 18413107273059286262
42 15 17967812739021689090
449060 50 17489869349611416692
5104073 3 18339646616195085979
53655031 270 18335981991347683482
53812653 166 18343861117405206872

> <PUBCHEM_SHAPE_MULTIPOLES>
250.81
9.02
1.29
0.66
1.42
0.01
0.02
0.38
1.95
-0.32
-0.06
0.19
0
0.03

> <PUBCHEM_SHAPE_SELFOVERLAP>
509.282

> <PUBCHEM_SHAPE_VOLUME>
145.6

> <RelativeEnergy>
0

> <StereoisomerIndex>
1

> <TautomerIndex>
2

> <POSE_NUMBER>
1

> <LibDockScore>
91.3494

> <HotSpots>
6.61,10.07,-1.25,A,54,7
7.21,14.67,2.35,A,81,11
8.41,8.07,-4.86,A,38,13

> <-In-Situ Starting Energy>
-114.054273

> <-In-Situ Final Energy>
8.76476888

> <In-Situ Gradient>
0.0009841895937

$$$$
4780
  SciTegic09142310043D

 24 24  0  0  0  0            999 V2000
    6.8442    8.7264   -3.5553 N   0  0  0  1  0  0
    8.4555    8.1507   -5.1351 N   0  0  0  1  0  0
    9.0729    9.3077   -3.1958 N   0  0  0  1  0  0
    9.8849    9.8284   -5.7629 N   0  0  0  1  0  0
   10.2351    7.7602   -6.6514 N   0  0  0  1  0  0
    6.5063    9.2917   -2.3663 C   0  0  0  1  0  0
    6.6436   10.6616   -2.1690 C   0  0  0  1  0  0
    6.1038    8.4848   -1.3147 C   0  0  0  1  0  0
    6.5296   11.1968   -0.8942 C   0  0  0  1  0  0
    5.9756    9.0233   -0.0441 C   0  0  0  1  0  0
    6.2277   10.3678    0.1727 C   0  0  0  1  0  0
    8.1312    8.7493   -3.9618 C   0  0  0  1  0  0
    9.5252    8.5507   -5.8608 C   0  0  0  1  0  0
    7.8624    7.4093   -5.4522 H   0  0
    8.8233    9.7405   -2.3281 H   0  0
   10.0346    9.2546   -3.4655 H   0  0
    9.2535   10.3745   -5.2151 H   0  0
    9.9750    6.8144   -6.8321 H   0  0
   11.0912    8.1138   -7.0510 H   0  0
    6.8869   11.2843   -3.0133 H   0  0
    5.9435    7.4279   -1.4740 H   0  0
    6.7071   12.2482   -0.7204 H   0  0
    5.7225    8.3863    0.7846 H   0  0
    6.2040   10.7658    1.1767 H   0  0
  1  6  1  0
  1 12  2  0
  2 12  1  0
  2 13  1  0
  3 12  1  0
  4 13  2  0
  5 13  1  0
  6  7  2  0
  6  8  1  0
  7  9  1  0
  8 10  2  0
  9 11  2  0
 10 11  1  0
  2 14  1  0
  3 15  1  0
  3 16  1  0
  4 17  1  0
  5 18  1  0
  5 19  1  0
  7 20  1  0
  8 21  1  0
  9 22  1  0
 10 23  1  0
 11 24  1  0
M  END
> <Name>
4780

> <Binding Energy>
-39.3454

> <Ligand Energy>
-7.0813

> <Protein Energy>
-7801.1566

> <Complex Energy>
-7847.5833

> <Complex Entropy>
-31.477

> <Protein Entropy>
-31.4717

> <Ligand Entropy>
-17.9114

> <Entropic Energy>
17.906

> <AbsoluteEnergy>
74.6396

> <ConfNumber>
1

> <Ionization pH>
8.46_D

> <IonizationIndex>
2

> <MOL_NUMBER>
151

> <NumberOfIonizations>
2

> <NumberOfStereoisomers>
1

> <NumberOfTautomers>
8

> <PUBCHEM_ATOM_DEF_STEREO_COUNT>
0

> <PUBCHEM_ATOM_UDEF_STEREO_COUNT>
0

> <PUBCHEM_BOND_DEF_STEREO_COUNT>
0

> <PUBCHEM_BOND_UDEF_STEREO_COUNT>
0

> <PUBCHEM_CACTVS_TAUTO_COUNT>
5

> <PUBCHEM_COMPONENT_COUNT>
1

> <PUBCHEM_COMPOUND_CID>
4780

> <PUBCHEM_CONFORMER_DIVERSEORDER>
1
2
3

> <PUBCHEM_CONFORMER_ID>
000012AC00000001

> <PUBCHEM_CONFORMER_RMSD>
0.6

> <PUBCHEM_COORDINATE_TYPE>
2
5
10

> <PUBCHEM_EFFECTIVE_ROTOR_COUNT>
2

> <PUBCHEM_FEATURE_SELFOVERLAP>
30.547

> <PUBCHEM_HEAVY_ATOM_COUNT>
13

> <PUBCHEM_ISOTOPIC_ATOM_COUNT>
0

> <PUBCHEM_MMFF94_ENERGY>
44.4653

> <PUBCHEM_MMFF94_PARTIAL_CHARGES>
24
1 -0.63
10 -0.15
11 -0.15
12 0.71
13 0.55
14 0.15
15 0.15
16 0.15
17 0.15
18 0.15
19 0.4
2 -0.66
20 0.4
21 0.4
22 0.4
23 0.4
24 0.4
3 -0.85
4 -0.85
5 -0.85
6 0.18
7 -0.15
8 -0.15
9 -0.15

> <PUBCHEM_PHARMACOPHORE_FEATURES>
6
1 3 donor
1 4 donor
1 5 donor
4 1 2 3 12 cation
4 2 4 5 13 cation
6 6 7 8 9 10 11 rings

> <PUBCHEM_SHAPE_FINGERPRINT>
10130415 120 17775286058064205576
10219947 1 16056881334025469628
10465860 250 18059851745033787336
10751810 167 18408893923015873028
11062470 55 10015865383766398989
12186901 62 18040713628508315525
124424 183 17918273143078506449
12932764 1 17845929744525739605
14144814 61 18409445873352288369
14252887 29 17418383484688171598
14325111 11 18408885139749795365
14993402 34 17603579751366218927
15653759 3 18342172288956586313
17804303 29 18341617040016540271
17834074 16 18409732858777697823
190213 19 17385724703191952949
19422 9 17967254191077371758
200 152 17132105862767565757
20201158 50 18201722833856048846
20281407 28 18412545426722218250
20645464 45 18131359605006905367
21293036 1 14851606600304638092
22485316 2 18408037412090026470
23175994 123 17561090197794015304
23463225 33 18335420144905620607
3312278 4 18341897372473953922
449060 23 17822289127953258959
7364860 26 18192715767793117636
74978 22 16629952351809223973
77779 3 18335704948735095764
93112 12 18408039632335015005

> <PUBCHEM_SHAPE_MULTIPOLES>
242.63
7.23
1.34
0.84
3.75
0.31
-0.24
0.99
0.53
-0.53
-0.04
0.14
-0.15
0.19

> <PUBCHEM_SHAPE_SELFOVERLAP>
502.607

> <PUBCHEM_SHAPE_VOLUME>
134.6

> <RelativeEnergy>
0

> <StereoisomerIndex>
1

> <TautomerIndex>
2

> <POSE_NUMBER>
1

> <LibDockScore>
75.1159

> <HotSpots>
8.81,8.07,-6.66,P,48,5
5.81,8.67,-0.66,A,61,8
6.21,10.67,0.94,A,74,11

> <-In-Situ Starting Energy>
-61.900238

> <-In-Situ Final Energy>
21.1957117

> <In-Situ Gradient>
0.0007325261983

$$$$
4806
  SciTegic09142310043D

 38 40  0  0  0  0            999 V2000
   13.5935    3.4987  -11.4519 S   0  0  0  1  0  0
   10.6952    1.9487  -11.6689 S   0  0  0  1  0  0
   14.6326    4.4826  -11.5109 O   0  0  0  1  0  0
   13.0213    3.1680  -10.1806 O   0  0  0  1  0  0
   14.1925   -0.9009  -16.1841 O   0  0  0  1  0  0
   14.8512   -2.2555  -19.5255 O   0  5  0  1  0  0
   15.7616   -0.7115  -18.3392 O   0  0  0  1  0  0
   15.4183   -1.3875  -14.2330 N   0  0  0  1  0  0
   12.3885    4.0766  -12.3758 N   0  5  0  1  0  0
   10.0878    3.7551  -13.3241 N   0  0  0  1  0  0
   14.1933    2.0163  -12.2230 C   0  0  0  1  0  0
   14.9921   -0.2675  -13.5899 C   0  0  0  1  0  0
   15.0743    2.1221  -13.2905 C   0  0  0  1  0  0
   13.6882    0.7758  -11.8515 C   0  0  0  1  0  0
   15.4778    0.9799  -13.9702 C   0  0  0  1  0  0
   14.0973   -0.3676  -12.5297 C   0  0  0  1  0  0
   15.7601   -2.8033  -16.1882 C   0  0  0  1  0  0
   15.1026   -1.6528  -15.5209 C   0  0  0  1  0  0
   15.9389   -2.9151  -17.5826 C   0  0  0  1  0  0
   16.2003   -3.8557  -15.3784 C   0  0  0  1  0  0
   11.1096    3.3629  -12.5148 C   0  0  0  1  0  0
   16.5470   -4.0562  -18.1086 C   0  0  0  1  0  0
   16.8121   -4.9785  -15.9168 C   0  0  0  1  0  0
   16.9932   -5.0784  -17.2845 C   0  0  0  1  0  0
   15.4958   -1.8947  -18.5453 C   0  0  0  1  0  0
    9.1622    1.8864  -12.3805 C   0  0  0  1  0  0
    8.9804    2.9547  -13.2705 C   0  0  0  1  0  0
   14.3456   -0.8999  -17.1279 H   0  0
   15.4530    3.0921  -13.5748 H   0  0
   12.9927    0.7056  -11.0278 H   0  0
   16.1625    1.0528  -14.8038 H   0  0
   13.7182   -1.3360  -12.2403 H   0  0
   16.0536   -3.8363  -14.3110 H   0  0
   16.6685   -4.1458  -19.1790 H   0  0
   17.1389   -5.7801  -15.2713 H   0  0
   17.4768   -5.9507  -17.7043 H   0  0
    8.4292    1.1223  -12.1683 H   0  0
    8.0782    3.1213  -13.8399 H   0  0
  1  3  2  0
  1  4  2  0
  1  9  1  0
  1 11  1  0
  2 21  1  0
  2 26  1  0
  5 18  1  0
  6 25  1  0
  7 25  2  0
  8 12  1  0
  8 18  2  0
  9 21  1  0
 10 21  2  0
 10 27  1  0
 11 13  2  0
 11 14  1  0
 12 15  2  0
 12 16  1  0
 13 15  1  0
 14 16  2  0
 17 18  1  0
 17 19  2  0
 17 20  1  0
 19 22  1  0
 19 25  1  0
 20 23  2  0
 22 24  2  0
 23 24  1  0
 26 27  2  0
  5 28  1  0
 13 29  1  0
 14 30  1  0
 15 31  1  0
 16 32  1  0
 20 33  1  0
 22 34  1  0
 23 35  1  0
 24 36  1  0
 26 37  1  0
 27 38  1  0
M  CHG  2   6  -1   9  -1
M  END
> <Name>
4806

> <Binding Energy>
-12.28

> <Ligand Energy>
1.2511

> <Protein Energy>
-7801.1566

> <Complex Energy>
-7812.1856

> <Complex Entropy>
-31.4876

> <Protein Entropy>
-31.4717

> <Ligand Entropy>
-20.2348

> <Entropic Energy>
20.2189

> <AbsoluteEnergy>
61.2427

> <ConfNumber>
24

> <Ionization pH>
7.5

> <IonizationIndex>
1

> <MOL_NUMBER>
164

> <NumberOfIonizations>
1

> <NumberOfStereoisomers>
1

> <NumberOfTautomers>
2

> <PUBCHEM_ATOM_DEF_STEREO_COUNT>
0

> <PUBCHEM_ATOM_UDEF_STEREO_COUNT>
0

> <PUBCHEM_BOND_DEF_STEREO_COUNT>
0

> <PUBCHEM_BOND_UDEF_STEREO_COUNT>
0

> <PUBCHEM_CACTVS_TAUTO_COUNT>
4

> <PUBCHEM_COMPONENT_COUNT>
1

> <PUBCHEM_COMPOUND_CID>
4806

> <PUBCHEM_CONFORMER_DIVERSEORDER>
1
84
107
83
92
118
129
128
38
135
2
140
125
131
23
134
106
47
141
28
109
24
70
80
14
85
117
139
144
116
124
12
130
137
132
63
33
77
71
114
15
143
65
86
53
97
146
89
62
3
66
121
61
138
115
110
120
99
43
74
81
52
69
76
102
13
142
26
127
82
90
37
95
8
98
93
126
111
100
46
42
22
60
103
79
67
27
41
58
101
36
54
73
105
51
78
91
9
59
108
72
119
35
57
5
122
56
75
21
49
147
4
88
25
55
34
19
68
133
39
112
7
16
45
10
30
123
87
64
113
136
6
96
48
145
94
44
104
29
18
32
17
20
31
40
11
50

> <PUBCHEM_CONFORMER_ID>
000012C600000001

> <PUBCHEM_CONFORMER_RMSD>
0.8

> <PUBCHEM_COORDINATE_TYPE>
2
5
10

> <PUBCHEM_EFFECTIVE_ROTOR_COUNT>
7

> <PUBCHEM_FEATURE_SELFOVERLAP>
60.977

> <PUBCHEM_HEAVY_ATOM_COUNT>
27

> <PUBCHEM_ISOTOPIC_ATOM_COUNT>
0

> <PUBCHEM_MMFF94_ENERGY>
66.5742

> <PUBCHEM_MMFF94_PARTIAL_CHARGES>
40
1 1.45
10 -0.57
11 -0.01
12 0.12
13 -0.15
14 -0.15
15 -0.15
16 -0.15
17 0.09
18 0.54
19 0.09
2 -0.08
20 -0.15
21 0.52
22 -0.15
23 -0.15
24 -0.15
25 0.63
26 -0.11
27 0.08
28 0.15
29 0.15
3 -0.65
30 0.15
31 0.15
32 0.37
33 0.42
34 0.15
35 0.15
36 0.15
37 0.15
38 0.15
39 0.15
4 -0.65
40 0.5
5 -0.57
6 -0.65
7 -0.57
8 -0.55
9 -0.7

> <PUBCHEM_PHARMACOPHORE_FEATURES>
12
1 10 acceptor
1 3 acceptor
1 4 acceptor
1 5 acceptor
1 6 acceptor
1 7 acceptor
1 8 donor
1 9 donor
3 6 7 25 anion
5 2 10 21 26 27 rings
6 11 12 13 14 15 16 rings
6 17 19 20 22 23 24 rings

> <PUBCHEM_SHAPE_FINGERPRINT>
10670039 82 12685370691705235670
10673678 19 18117570745743114300
11595378 159 15482399668049945826
117089 54 17483693195563319582
11796584 16 18335420149211111498
12128747 34 18339923710590023221
12236239 1 14189586251660020261
12596602 18 16128084658957745690
12788726 201 17346607352220027872
13533116 47 18272088270855913344
13583140 156 18129659832670533861
13617811 41 16805041805427944679
13782708 43 18410294710089936103
14251757 17 18334575715907621818
14910302 57 18040431071094299287
15183329 4 18341335509411178049
15250474 111 18199736102307599823
15419008 42 17975958891590832829
15537594 2 17917713534799494100
15664445 248 17895199934946990732
15799311 1 18262254268963975923
16067689 134 17404307296053524665
17349148 13 15913607272403014481
17844677 252 18186522081386634957
1813 80 16588025710279158581
1979834 28 17488736766883921606
19958102 18 18114173078692162045
20645477 70 18410573964288570352
21279426 13 18339360735077684197
21315759 148 18259990405056875897
21421861 104 18202273685619534372
21623969 137 18341613745887621490
21859007 373 17678443183278229981
23522609 53 13335592151714365583
23559900 14 18409449189114851580
239999 70 18412829071491090718
25222932 49 18058729259462681534
25269216 80 16588888887390523707
3004659 81 18335703806569174526
345986 75 17559388063979674394
34797466 226 17530971297428752925
3633792 109 18264198133573388301
3680242 22 18191587454030297850
394071 54 16773789333948376344
4073 2 18261395597648584897
4144715 1 18261117391802044841
4340502 62 18411131472771856192
460360 51 18269011828953131345
5104073 3 18412267216337488433
5265222 85 17976831105624449284
8509985 295 17846493716644525588
9995097 60 18410855473081830339

> <PUBCHEM_SHAPE_MULTIPOLES>
519.06
15.42
3.22
1.34
11.13
2.04
-0.02
1.5
0.43
-3.84
0.56
-0.6
0.11
1.73

> <PUBCHEM_SHAPE_SELFOVERLAP>
1103.293

> <PUBCHEM_SHAPE_VOLUME>
288.3

> <RelativeEnergy>
6.79041

> <StereoisomerIndex>
1

> <TautomerIndex>
2

> <POSE_NUMBER>
1

> <LibDockScore>
54.1357

> <HotSpots>
9.21,3.67,-12.86,A,26,2
15.61,-6.73,-13.65,A,23,23
7.61,3.27,-13.26,A,25,26

> <-In-Situ Starting Energy>
-672.395092

> <-In-Situ Final Energy>
16.3824091

> <In-Situ Gradient>
0.01054383085

$$$$
4947
  SciTegic09142310043D

 26 26  0  0  0  0            999 V2000
    6.7764    9.4608   -2.2157 O   0  0  0  1  0  0
   10.2195    9.2055   -6.7773 O   0  5  0  1  0  0
    8.7000    5.3720   -4.7220 O   0  0  0  1  0  0
   10.4667    6.8068   -6.6054 O   0  0  0  1  0  0
    6.9872   11.0724   -3.7091 O   0  0  0  1  0  0
    5.6005    9.9127   -0.0995 C   0  0  0  1  0  0
    6.1927   10.4703   -1.3884 C   0  0  0  1  0  0
    8.0619    8.9671   -4.0823 C   0  0  0  1  0  0
    7.9193    7.5970   -4.0204 C   0  0  0  1  0  0
    9.0192    9.4494   -4.9253 C   0  0  0  1  0  0
    7.2301    9.9244   -3.3574 C   0  0  0  1  0  0
    9.5719    8.6931   -5.8749 C   0  0  0  1  0  0
    8.6784    6.7537   -4.8588 C   0  0  0  1  0  0
    6.2420    8.5987    0.1709 C   0  0  0  1  0  0
    9.5201    7.3517   -5.7800 C   0  0  0  1  0  0
    7.9729    5.0406   -4.2093 H   0  0
   10.7803    7.6609   -6.9908 H   0  0
    5.8277   10.5882    0.7237 H   0  0
    4.5240    9.7787   -0.1338 H   0  0
    5.4104   10.9372   -1.9512 H   0  0
    6.9512   11.2199   -1.1521 H   0  0
    7.3281    7.2383   -3.1954 H   0  0
    9.3443   10.4355   -5.0645 H   0  0
    7.2764    8.8127   -0.0378 H   0  0
    5.8800    7.8094   -0.4892 H   0  0
    6.1700    8.2976    1.1998 H   0  0
  1  7  1  0
  1 11  1  0
  2 12  1  0
  3 13  1  0
  4 15  1  0
  5 11  2  0
  6  7  1  0
  6 14  1  0
  8  9  2  0
  8 10  1  0
  8 11  1  0
  9 13  1  0
 10 12  2  0
 12 15  1  0
 13 15  2  0
  3 16  1  0
  4 17  1  0
  6 18  1  0
  6 19  1  0
  7 20  1  0
  7 21  1  0
  9 22  1  0
 10 23  1  0
 14 24  1  0
 14 25  1  0
 14 26  1  0
M  CHG  1   2  -1
M  END
> <Name>
4947

> <Binding Energy>
-60.8002

> <Ligand Energy>
-39.1375

> <Protein Energy>
-7801.1566

> <Complex Energy>
-7901.0944

> <Complex Entropy>
-31.4781

> <Protein Entropy>
-31.4717

> <Ligand Entropy>
-18.4528

> <Entropic Energy>
18.4464

> <AbsoluteEnergy>
16.3575

> <ConfNumber>
1

> <Ionization pH>
7.5

> <IonizationIndex>
1

> <MOL_NUMBER>
173

> <NumberOfIonizations>
1

> <NumberOfStereoisomers>
1

> <NumberOfTautomers>
2

> <PUBCHEM_ATOM_DEF_STEREO_COUNT>
0

> <PUBCHEM_ATOM_UDEF_STEREO_COUNT>
0

> <PUBCHEM_BOND_DEF_STEREO_COUNT>
0

> <PUBCHEM_BOND_UDEF_STEREO_COUNT>
0

> <PUBCHEM_CACTVS_TAUTO_COUNT>
14

> <PUBCHEM_COMPONENT_COUNT>
1

> <PUBCHEM_COMPOUND_CID>
4947

> <PUBCHEM_CONFORMER_DIVERSEORDER>
1
12
21
18
5
13
20
19
11
6
7
9
2
8
3
17
4
10
16
22
15
14

> <PUBCHEM_CONFORMER_ID>
135300000001

> <PUBCHEM_CONFORMER_RMSD>
0.6

> <PUBCHEM_COORDINATE_TYPE>
2
5
10

> <PUBCHEM_EFFECTIVE_ROTOR_COUNT>
4

> <PUBCHEM_FEATURE_SELFOVERLAP>
30.455

> <PUBCHEM_HEAVY_ATOM_COUNT>
15

> <PUBCHEM_ISOTOPIC_ATOM_COUNT>
0

> <PUBCHEM_MMFF94_ENERGY>
31.5174

> <PUBCHEM_MMFF94_PARTIAL_CHARGES>
18
1 -0.43
10 -0.15
11 0.63
12 0.08
13 0.08
15 0.08
2 -0.53
20 0.15
21 0.15
25 0.45
26 0.45
27 0.45
3 -0.53
4 -0.53
5 -0.57
7 0.28
8 0.09
9 -0.15

> <PUBCHEM_PHARMACOPHORE_FEATURES>
6
1 14 hydrophobe
1 2 donor
1 3 donor
1 4 donor
1 5 acceptor
6 8 9 10 12 13 15 rings

> <PUBCHEM_SHAPE_FINGERPRINT>
11471102 20 18410009970241397245
11806522 49 18336265660899837886
12032990 46 18412266099244934356
13862211 1 18336828577216688098
14178342 30 18052527781990356690
14251717 144 18411136948211567299
14252887 29 17775574112857025558
15196674 1 18410573976841396705
15375358 24 18114463452693533723
15375462 189 18059849580438861103
15477762 27 18410013200083307518
16945 1 18338797802246025120
17834072 33 18272650186487042487
200 152 18343580733561231321
20279233 1 17895198826633950899
20281475 54 18341051813899322161
20645477 70 18411698773157993823
21267235 1 18411990143333159383
21501502 16 18266183841917626121
21501925 9 18337382756266018826
221490 88 18337395941552165538
22485316 2 18412261762055894175
22959321 4 18409729534456790155
23402539 116 18114456782261130725
23402655 69 18412260645169270525
23557571 272 17313097523935178341
23559900 14 18194673778879271875
25610 137 18411138047865730325
2748010 2 17691398621434704174
2871803 45 18334574629364986135
33824 294 18408603677663540755
42630746 31 18341893026146424300
5104073 3 18411136909667742793
581208 293 18410572907114737888
602551 16 15194712562822825119
8809292 202 18187370955923737835
9709674 26 18336834100011718443

> <PUBCHEM_SHAPE_MULTIPOLES>
279.35
8.95
2.04
0.58
11.84
0.3
0
2.13
-0.03
-1.43
0
0.04
0
0

> <PUBCHEM_SHAPE_SELFOVERLAP>
579.019

> <PUBCHEM_SHAPE_VOLUME>
160.2

> <RelativeEnergy>
0

> <StereoisomerIndex>
1

> <TautomerIndex>
1

> <POSE_NUMBER>
1

> <LibDockScore>
97.4577

> <HotSpots>
10.01,10.27,-5.66,P,55,2
5.81,9.67,0.14,A,68,7
8.61,9.67,-3.85,A,41,10

> <-In-Situ Starting Energy>
-6365.69849

> <-In-Situ Final Energy>
60.4812498

> <In-Situ Gradient>
0.0009442213883

$$$$
5344
  SciTegic09142310043D

 30 31  0  0  0  0            999 V2000
    4.8825    1.8288    0.5518 S   0  0  0  1  0  0
    7.4259    3.3870   -1.7070 O   0  0  0  1  0  0
    3.5912    2.2149    1.0505 O   0  0  0  1  0  0
    5.0170    0.4821    0.1067 O   0  0  0  1  0  0
    5.1882    2.7937   -0.6922 N   0  5  0  1  0  0
    8.2498    2.8457   -2.5730 N   0  0  0  1  0  0
    9.4661    3.5995    3.6291 N   0  0  0  1  0  0
    6.1757    2.1849    1.6881 C   0  0  0  1  0  0
    6.3621    2.5614   -1.5305 C   0  0  0  1  0  0
    6.5405    1.4455   -2.3234 C   0  0  0  1  0  0
    7.7359    1.6540   -2.9760 C   0  0  0  1  0  0
    6.0507    3.2511    2.5648 C   0  0  0  1  0  0
    7.4066    1.5976    1.4524 C   0  0  0  1  0  0
    5.6456    0.2553   -2.4821 C   0  0  0  1  0  0
    7.1545    3.7137    3.2505 C   0  0  0  1  0  0
    8.5163    2.0800    2.1152 C   0  0  0  1  0  0
    8.3836    3.1307    3.0050 C   0  0  0  1  0  0
    8.3399    0.7101   -3.9708 C   0  0  0  1  0  0
    9.4003    4.3637    4.2710 H   0  0
   10.3693    3.2027    3.4594 H   0  0
    5.1073    3.7461    2.7077 H   0  0
    7.5006    0.8032    0.7241 H   0  0
    4.6173    0.4828   -2.2134 H   0  0
    6.0157   -0.5150   -1.8096 H   0  0
    5.6674   -0.1104   -3.5083 H   0  0
    7.0515    4.5376    3.9457 H   0  0
    9.4807    1.6389    1.9342 H   0  0
    8.6030   -0.2182   -3.4715 H   0  0
    9.2358    1.1529   -4.3806 H   0  0
    7.6335    0.4862   -4.7698 H   0  0
  1  3  2  0
  1  4  2  0
  1  5  1  0
  1  8  1  0
  2  6  1  0
  2  9  1  0
  5  9  1  0
  6 11  2  0
  7 17  1  0
  8 12  2  0
  8 13  1  0
  9 10  2  0
 10 11  1  0
 10 14  1  0
 11 18  1  0
 12 15  1  0
 13 16  2  0
 15 17  2  0
 16 17  1  0
  7 19  1  0
  7 20  1  0
 12 21  1  0
 13 22  1  0
 14 23  1  0
 14 24  1  0
 14 25  1  0
 15 26  1  0
 16 27  1  0
 18 28  1  0
 18 29  1  0
 18 30  1  0
M  CHG  1   5  -1
M  END
> <Name>
5344

> <Binding Energy>
-15.0616

> <Ligand Energy>
14.5049

> <Protein Energy>
-7801.1566

> <Complex Energy>
-7801.7133

> <Complex Entropy>
-31.4787

> <Protein Entropy>
-31.4717

> <Ligand Entropy>
-18.9146

> <Entropic Energy>
18.9076

> <AbsoluteEnergy>
32.537

> <ConfNumber>
19

> <Ionization pH>
7.5

> <IonizationIndex>
1

> <MOL_NUMBER>
189

> <NumberOfIonizations>
1

> <NumberOfStereoisomers>
1

> <NumberOfTautomers>
1

> <PUBCHEM_ATOM_DEF_STEREO_COUNT>
0

> <PUBCHEM_ATOM_UDEF_STEREO_COUNT>
0

> <PUBCHEM_BOND_DEF_STEREO_COUNT>
0

> <PUBCHEM_BOND_UDEF_STEREO_COUNT>
0

> <PUBCHEM_CACTVS_TAUTO_COUNT>
3

> <PUBCHEM_COMPONENT_COUNT>
1

> <PUBCHEM_COMPOUND_CID>
5344

> <PUBCHEM_CONFORMER_DIVERSEORDER>
4
2
19
1
18
11
7
16
12
3
8
5
14
9
10
17
6
13
15

> <PUBCHEM_CONFORMER_ID>
140000

> <PUBCHEM_CONFORMER_RMSD>
0.6

> <PUBCHEM_COORDINATE_TYPE>
2
5
10

> <PUBCHEM_EFFECTIVE_ROTOR_COUNT>
3

> <PUBCHEM_FEATURE_SELFOVERLAP>
40.613

> <PUBCHEM_HEAVY_ATOM_COUNT>
18

> <PUBCHEM_ISOTOPIC_ATOM_COUNT>
0

> <PUBCHEM_MMFF94_ENERGY>
30.3629

> <PUBCHEM_MMFF94_PARTIAL_CHARGES>
25
1 1.45
10 -0.18
11 0.11
12 -0.15
13 -0.15
14 0.18
15 -0.15
16 -0.15
17 0.1
18 0.18
19 0.42
2 -0.02
20 0.15
21 0.15
25 0.15
26 0.15
3 -0.65
30 0.4
31 0.4
4 -0.65
5 -0.7
6 -0.41
7 -0.9
8 -0.01
9 0.29

> <PUBCHEM_PHARMACOPHORE_FEATURES>
8
1 3 acceptor
1 4 acceptor
1 5 donor
1 6 acceptor
1 7 cation
1 7 donor
5 2 6 9 10 11 rings
6 8 12 13 15 16 17 rings

> <PUBCHEM_SHAPE_FINGERPRINT>
11046707 91 18407758131614737788
11578080 2 18042665329961952468
12236239 1 18040720251226553212
12251169 10 16272205297473414900
12346177 29 18272078427307920503
12507557 5 13901901237148497339
12553582 1 17749378282721865482
12633257 1 16773790424585264682
12670546 177 14201402711196296491
13675066 3 17632858628900487909
13862211 1 18270399512271845551
14252887 29 17203337684654662014
14341114 176 17917712418007789824
14386348 63 17918278640636690934
14576447 43 17023181592352996346
15188451 53 17774430703023008935
15885798 251 18342177769292898329
17804303 29 18413389852032281753
1798214 20 17530679909608993842
1813 80 18041005020385171220
18186145 218 13695585542359841324
18915474 69 17895196640421958302
19141452 34 17989205979929628519
193927 3 18334590043712591267
19784866 140 16370721509025284312
200 152 16805603634194324172
20279233 1 17346885563137455647
20281475 54 18336825389574903542
204376 136 13470687057363827013
20645477 70 15213289799500488482
21033648 29 16415189032091375107
21267235 1 18335709342360305379
212847 35 9655580690979626286
221357 26 14129052621264265655
22646028 1 18333731333821297023
22646028 28 18260546740317490882
22854114 59 15697999626159219228
23402539 116 17240761740565154916
23402655 69 13551188875186179250
235170 7 13840255966527998674
23559900 14 18060431200689166468
26918003 58 17346878953061545778
351380 180 16056880221576121187
351380 3 18040433282955341050
42 15 18202567284698149339
4325135 7 18335702776225650348
465052 167 18041009478830606635
4990 188 13190335764541212576
5104073 3 18129388266589564291
5385378 56 18053674582004685465
559249 180 18261951856528274899
5924683 9 16987988527124153399
602551 16 18342738516265628798
9981440 41 17181658905758532241

> <PUBCHEM_SHAPE_MULTIPOLES>
341.73
11.45
1.66
1.17
1.33
0.12
-0.12
5.3
2.17
0.95
-0.21
-1.03
-0.19
-0.49

> <PUBCHEM_SHAPE_SELFOVERLAP>
709.706

> <PUBCHEM_SHAPE_VOLUME>
196.1

> <RelativeEnergy>
16.8543

> <StereoisomerIndex>
1

> <TautomerIndex>
1

> <POSE_NUMBER>
1

> <LibDockScore>
81.1823

> <HotSpots>
9.21,2.67,2.54,A,84,13
7.81,4.27,4.14,A,90,15
6.41,0.47,-4.25,A,40,18

> <-In-Situ Starting Energy>
-5508.03707

> <-In-Situ Final Energy>
29.7249316

> <In-Situ Gradient>
0.0009114840495

$$$$
5362
  SciTegic09142310043D

 57 59  0  0  0  0            999 V2000
   12.7408    6.2053   -7.5274 O   0  0  0  1  0  0
   11.6201    5.9567  -11.7144 O   0  0  0  1  0  0
   13.2663    3.4233   -8.1038 O   0  0  0  1  0  0
   10.8544    5.8818   -6.3239 O   0  0  0  1  0  0
   12.9848    5.2433   -1.7782 O   0  5  0  1  0  0
   14.2596    4.3372   -3.2352 O   0  0  0  1  0  0
   11.6129    3.7257  -11.0037 N   0  0  0  1  0  0
   12.1346    3.0435  -10.0912 N   0  0  0  1  0  0
   12.7523    5.2097   -9.6996 C   0  0  0  1  0  0
   14.1960    5.5966  -10.0634 C   0  0  0  1  0  0
   11.9137    5.0476  -10.9400 C   0  0  0  1  0  0
   12.7468    3.7898   -9.1509 C   0  0  0  1  0  0
   12.0623    6.2142   -8.7735 C   0  0  0  1  0  0
   14.7939    4.7886  -11.2356 C   0  0  0  1  0  0
   16.3039    4.9410  -11.3572 C   0  0  0  1  0  0
   10.7871    3.2544  -11.9796 C   0  0  0  1  0  0
   12.2234    1.6778  -10.0403 C   0  0  0  1  0  0
   16.7627    6.3990  -11.3555 C   0  0  0  1  0  0
    9.7252    2.4118  -11.6681 C   0  0  0  1  0  0
   11.7352    0.9638   -8.9480 C   0  0  0  1  0  0
   10.9540    3.6809  -13.2881 C   0  0  0  1  0  0
   12.8748    0.9963  -11.0662 C   0  0  0  1  0  0
   12.0729    5.8427   -6.4528 C   0  0  0  1  0  0
   12.9751    5.3226   -5.3668 C   0  0  0  1  0  0
    8.8150    2.0327  -12.6423 C   0  0  0  1  0  0
   11.9203   -0.4111   -8.8726 C   0  0  0  1  0  0
   10.0208    3.3460  -14.2408 C   0  0  0  1  0  0
   13.0500   -0.3788  -10.9955 C   0  0  0  1  0  0
    8.9530    2.5140  -13.9349 C   0  0  0  1  0  0
   12.5855   -1.0792   -9.8914 C   0  0  0  1  0  0
   12.2439    5.2900   -4.0232 C   0  0  0  1  0  0
   13.2327    4.9224   -2.9301 C   0  0  0  1  0  0
   14.2084    6.6503  -10.3279 H   0  0
   14.8284    5.5025   -9.1784 H   0  0
   11.0026    5.9783   -8.6624 H   0  0
   12.1196    7.2252   -9.1771 H   0  0
   14.5828    3.7250  -11.1274 H   0  0
   14.3296    5.1014  -12.1719 H   0  0
   16.6397    4.4521  -12.2726 H   0  0
   16.7795    4.4037  -10.5380 H   0  0
   17.1581    6.6692  -10.3775 H   0  0
   15.9617    7.0982  -11.5878 H   0  0
   17.5389    6.5393  -12.1050 H   0  0
    9.5965    2.0557  -10.6580 H   0  0
   11.2443    1.4822   -8.1371 H   0  0
   11.7756    4.3248  -13.5679 H   0  0
   13.2664    1.5372  -11.9155 H   0  0
   13.3027    4.3224   -5.6508 H   0  0
   13.8666    5.9403   -5.3220 H   0  0
    7.9946    1.3826  -12.3769 H   0  0
   11.5741   -0.9586   -8.0073 H   0  0
   10.1423    3.7853  -15.2149 H   0  0
   13.5698   -0.8978  -11.7884 H   0  0
    8.2306    2.2562  -14.6959 H   0  0
   12.7625   -2.1406   -9.8121 H   0  0
   11.8037    6.2435   -3.7585 H   0  0
   11.4222    4.5809   -4.0503 H   0  0
  1 13  1  0
  1 23  1  0
  2 11  2  0
  3 12  2  0
  4 23  2  0
  5 32  1  0
  6 32  2  0
  7  8  1  0
  7 11  1  0
  7 16  1  0
  8 12  1  0
  8 17  1  0
  9 10  1  0
  9 11  1  0
  9 12  1  0
  9 13  1  0
 10 14  1  0
 14 15  1  0
 15 18  1  0
 16 19  2  0
 16 21  1  0
 17 20  2  0
 17 22  1  0
 19 25  1  0
 20 26  1  0
 21 27  2  0
 22 28  2  0
 23 24  1  0
 24 31  1  0
 25 29  2  0
 26 30  2  0
 27 29  1  0
 28 30  1  0
 31 32  1  0
 10 33  1  0
 10 34  1  0
 13 35  1  0
 13 36  1  0
 14 37  1  0
 14 38  1  0
 15 39  1  0
 15 40  1  0
 18 41  1  0
 18 42  1  0
 18 43  1  0
 19 44  1  0
 20 45  1  0
 21 46  1  0
 22 47  1  0
 24 48  1  0
 24 49  1  0
 25 50  1  0
 26 51  1  0
 27 52  1  0
 28 53  1  0
 29 54  1  0
 30 55  1  0
 31 56  1  0
 31 57  1  0
M  CHG  1   5  -1
M  END
> <Name>
5362

> <Binding Energy>
-60.6169

> <Ligand Energy>
6.3054

> <Protein Energy>
-7801.1566

> <Complex Energy>
-7855.4681

> <Complex Entropy>
-31.4866

> <Protein Entropy>
-31.4717

> <Ligand Entropy>
-20.4128

> <Entropic Energy>
20.3979

> <AbsoluteEnergy>
64.6041

> <ConfNumber>
53

> <Ionization pH>
7.5

> <IonizationIndex>
1

> <MOL_NUMBER>
190

> <NumberOfIonizations>
1

> <NumberOfStereoisomers>
1

> <NumberOfTautomers>
1

> <PUBCHEM_ATOM_DEF_STEREO_COUNT>
0

> <PUBCHEM_ATOM_UDEF_STEREO_COUNT>
0

> <PUBCHEM_BOND_DEF_STEREO_COUNT>
0

> <PUBCHEM_BOND_UDEF_STEREO_COUNT>
0

> <PUBCHEM_CACTVS_TAUTO_COUNT>
1

> <PUBCHEM_COMPONENT_COUNT>
1

> <PUBCHEM_COMPOUND_CID>
5362

> <PUBCHEM_CONFORMER_DIVERSEORDER>
1
14
42
5
21
24
8
2
18
40
23
15
30
34
37
43
45
38
44
28
3
17
6
27
29
35
26
13
32
16
12
31
10
19
25
41
20
47
22
39
36
11
33
4
46
9
7

> <PUBCHEM_CONFORMER_ID>
000014F200000001

> <PUBCHEM_CONFORMER_RMSD>
1

> <PUBCHEM_COORDINATE_TYPE>
2
5
10

> <PUBCHEM_EFFECTIVE_ROTOR_COUNT>
11.6

> <PUBCHEM_FEATURE_SELFOVERLAP>
50.806

> <PUBCHEM_HEAVY_ATOM_COUNT>
32

> <PUBCHEM_ISOTOPIC_ATOM_COUNT>
0

> <PUBCHEM_MMFF94_ENERGY>
95.0753

> <PUBCHEM_MMFF94_PARTIAL_CHARGES>
39
1 -0.43
11 0.57
12 0.57
13 0.28
16 0.12
17 0.12
19 -0.15
2 -0.57
20 -0.15
21 -0.15
22 -0.15
23 0.66
24 0.06
25 -0.15
26 -0.15
27 -0.15
28 -0.15
29 -0.15
3 -0.57
30 -0.15
31 0.06
32 0.66
4 -0.57
44 0.15
45 0.15
46 0.15
47 0.15
5 -0.65
50 0.15
51 0.15
52 0.15
53 0.15
54 0.15
55 0.15
58 0.5
6 -0.57
7 -0.18
8 -0.18
9 0.12

> <PUBCHEM_PHARMACOPHORE_FEATURES>
10
1 18 hydrophobe
1 2 acceptor
1 3 acceptor
1 4 acceptor
1 5 acceptor
1 6 acceptor
3 5 6 32 anion
5 7 8 9 11 12 rings
6 16 19 21 25 27 29 rings
6 17 20 22 26 28 30 rings

> <PUBCHEM_SHAPE_FINGERPRINT>
10670039 82 18260553355848716790
10816530 23 17327724116930510965
10930396 42 17530958090805387512
11582403 64 16088940645060345007
12156800 1 17416151531754934525
12422481 6 18114474370659149312
12788726 201 17913783970088053823
133893 2 17607546892145268421
14028597 1 17257407521575192259
140371 6 18265624362345915250
14068700 675 18198053892345221894
14142880 1 18342172267481886106
14400156 266 18341623649997609375
15163728 17 15050623569172674504
15324884 4 17688344216787591083
15420108 30 18196108663503369557
16114785 44 17822844265239830149
17980427 23 18192174654107037617
18365409 1 18130509635827791253
20600515 1 16809864164395429489
21927370 108 18114466759512981274
23352939 185 18263913504993527479
23419403 2 17912610722757132791
27425 322 16985480317762844841
3187 122 17241902986269424812
3380486 145 18187367584369031797
3493558 16 18341886437846011965
376196 1 16525230144432794172
46194498 28 8694741471164103698
469060 322 18260541238838710256
497634 4 18343578551892184606
5252454 2 18341886339293736738

> <PUBCHEM_SHAPE_MULTIPOLES>
613.37
10.12
5.29
3.08
21.16
0.42
0.22
-2.81
5.72
-4.54
-2.85
-3.39
3.24
-3.67

> <PUBCHEM_SHAPE_SELFOVERLAP>
1301.044

> <PUBCHEM_SHAPE_VOLUME>
339.4

> <RelativeEnergy>
7.18076

> <StereoisomerIndex>
1

> <TautomerIndex>
1

> <POSE_NUMBER>
1

> <LibDockScore>
120.1246

> <HotSpots>
16.61,6.47,-11.46,A,30,15
11.21,4.87,-14.65,A,18,27
13.41,5.07,-3.25,A,44,31

> <-In-Situ Starting Energy>
-128.043049

> <-In-Situ Final Energy>
48.8278859

> <In-Situ Gradient>
0.0009326406644

$$$$
5541
  SciTegic09142310043D

 29 28  0  0  0  0            999 V2000
    5.9103    8.9857   -1.5151 O   0  0  0  1  0  0
    8.3694    9.7090   -4.0981 O   0  0  0  1  0  0
    6.4217   11.7937   -0.9181 O   0  0  0  1  0  0
    4.3169    9.3565    0.0252 O   0  0  0  1  0  0
    9.9638    9.7709   -5.6511 O   0  0  0  1  0  0
    7.0275   13.8017   -1.6648 O   0  0  0  1  0  0
    7.0146    9.6498   -2.1116 C   0  0  0  1  0  0
    7.2508    9.0493   -3.4972 C   0  0  0  1  0  0
    6.8522   11.1790   -2.1481 C   0  0  0  1  0  0
    5.4825    9.3319   -0.3081 C   0  0  0  1  0  0
    9.1311    9.1294   -5.0258 C   0  0  0  1  0  0
    6.6692   13.0860   -0.7442 C   0  0  0  1  0  0
    6.4923    9.6770    0.6953 C   0  0  0  1  0  0
    8.9405    7.6395   -5.3185 C   0  0  0  1  0  0
    6.4258   13.5973    0.6816 C   0  0  0  1  0  0
    7.9100    9.4321   -1.5584 H   0  0
    7.4263    7.9791   -3.3934 H   0  0
    6.3751    9.1973   -4.1303 H   0  0
    7.8557   11.5069   -2.3319 H   0  0
    6.2173   11.5009   -2.9710 H   0  0
    7.4597    9.8862    0.2804 H   0  0
    6.4837    8.7656    1.2767 H   0  0
    6.1712   10.5469    1.2633 H   0  0
    7.9054    7.4048   -5.5625 H   0  0
    9.2677    7.0480   -4.4708 H   0  0
    9.5751    7.3712   -6.1612 H   0  0
    6.6213   12.7901    1.3855 H   0  0
    5.4086   13.9613    0.7855 H   0  0
    7.0435   14.4366    0.9663 H   0  0
  1  7  1  0
  1 10  1  0
  2  8  1  0
  2 11  1  0
  3  9  1  0
  3 12  1  0
  4 10  2  0
  5 11  2  0
  6 12  2  0
  7  8  1  0
  7  9  1  0
 10 13  1  0
 11 14  1  0
 12 15  1  0
  7 16  1  0
  8 17  1  0
  8 18  1  0
  9 19  1  0
  9 20  1  0
 13 21  1  0
 13 22  1  0
 13 23  1  0
 14 24  1  0
 14 25  1  0
 14 26  1  0
 15 27  1  0
 15 28  1  0
 15 29  1  0
M  END
> <Name>
5541

> <Binding Energy>
-20.7

> <Ligand Energy>
-60.1512

> <Protein Energy>
-7801.1566

> <Complex Energy>
-7882.0078

> <Complex Entropy>
-31.4784

> <Protein Entropy>
-31.4717

> <Ligand Entropy>
-18.6156

> <Entropic Energy>
18.609

> <AbsoluteEnergy>
32.0787

> <ConfNumber>
68

> <IonizationIndex>
1

> <MOL_NUMBER>
193

> <NumberOfIonizations>
1

> <NumberOfStereoisomers>
1

> <NumberOfTautomers>
1

> <PUBCHEM_ATOM_DEF_STEREO_COUNT>
0

> <PUBCHEM_ATOM_UDEF_STEREO_COUNT>
0

> <PUBCHEM_BOND_DEF_STEREO_COUNT>
0

> <PUBCHEM_BOND_UDEF_STEREO_COUNT>
0

> <PUBCHEM_CACTVS_TAUTO_COUNT>
1

> <PUBCHEM_COMPONENT_COUNT>
1

> <PUBCHEM_COMPOUND_CID>
5541

> <PUBCHEM_CONFORMER_DIVERSEORDER>
1
66
37
230
144
176
155
110
165
67
108
164
178
243
217
151
100
138
39
232
188
183
23
134
136
93
142
42
28
179
147
11
30
70
166
154
215
92
22
35
13
146
14
109
162
242
55
72
106
148
238
156
149
81
172
25
15
117
177
221
118
143
129
140
73
145
212
41
229
223
68
77
46
193
62
82
131
101
63
240
52
125
107
127
111
159
235
43
141
169
71
196
32
24
83
38
60
85
195
56
246
182
9
27
124
189
181
194
84
173
17
161
225
198
150
2
201
137
48
36
233
190
158
231
122
170
218
168
247
18
207
191
226
45
96
241
102
103
5
204
206
54
3
34
33
128
104
7
167
210
78
114
202
209
19
185
213
4
90
227
57
16
214
237
47
120
49
157
126
186
75
53
130
74
139
86
244
76
192
59
116
220
224
98
228
8
91
121
119
64
205
113
199
239
197
112
175
6
208
180
97
123
51
163
94
50
219
133
216
171
26
61
248
40
211
80
115
160
132
99
69
222
58
65
174
153
95
236
44
88
87
29
12
89
245
10
184
187
152
203
20
200
105
79
21
234
135
31

> <PUBCHEM_CONFORMER_ID>
000015A500000001

> <PUBCHEM_CONFORMER_RMSD>
0.8

> <PUBCHEM_COORDINATE_TYPE>
2
5
10

> <PUBCHEM_EFFECTIVE_ROTOR_COUNT>
8

> <PUBCHEM_FEATURE_SELFOVERLAP>
15.224

> <PUBCHEM_HEAVY_ATOM_COUNT>
15

> <PUBCHEM_ISOTOPIC_ATOM_COUNT>
0

> <PUBCHEM_MMFF94_ENERGY>
23.1247

> <PUBCHEM_MMFF94_PARTIAL_CHARGES>
15
1 -0.43
10 0.66
11 0.66
12 0.66
13 0.06
14 0.06
15 0.06
2 -0.43
3 -0.43
4 -0.57
5 -0.57
6 -0.57
7 0.28
8 0.28
9 0.28

> <PUBCHEM_PHARMACOPHORE_FEATURES>
3
1 4 acceptor
1 5 acceptor
1 6 acceptor

> <PUBCHEM_SHAPE_FINGERPRINT>
10922049 32 18340210691387662071
11357001 24 18189902087477778763
12119455 92 17968086469972171541
122479 349 18343867718817738212
13380535 76 18342736291282457886
136203 1 18263927815982657379
15295992 7 18060698416290032680
15502708 68 18118685413771400245
1741750 31 18342175566132567240
18186145 218 18199474268258258604
201361 129 17911247109195417505
204376 136 18336270050535905445
20510252 161 18266456705432017931
20524608 308 18342175609035131342
21524375 3 18341045220702601125
21731228 192 18337399235960639969
23402539 116 18271236244430072271
23419403 2 17268402350227670359
23500284 214 18343588429926581872
23532345 11 18188764093375397728
23558518 356 17897447418186115712
298252 57 17131542847820143741
305870 269 18193557757497540741
474 4 18198908019759547233
474229 33 18410575102602707327
5104073 3 18262224639113892360
58734987 24 18339075007656329407
633830 44 18057611962317472517
7364860 26 17764593118742750221
81228 2 18189903204206140335

> <PUBCHEM_SHAPE_MULTIPOLES>
273.48
6.84
3.11
1.13
7.13
2.21
-0.19
-5.14
-1.28
-2.78
-0.84
-0.86
0.18
-0.05

> <PUBCHEM_SHAPE_SELFOVERLAP>
526.388

> <PUBCHEM_SHAPE_VOLUME>
165.4

> <RelativeEnergy>
17.9864

> <StereoisomerIndex>
1

> <TautomerIndex>
1

> <POSE_NUMBER>
1

> <LibDockScore>
108.9789

> <HotSpots>
4.21,9.07,-0.26,P,84,4
10.01,10.27,-5.66,P,55,5
6.81,12.47,1.15,A,75,15

> <-In-Situ Starting Energy>
-245.571615

> <-In-Situ Final Energy>
26.1147206

> <In-Situ Gradient>
0.0009941760608

$$$$
5576
  SciTegic09142310043D

 19 19  0  0  0  0            999 V2000
    7.8849    1.9035   -1.4501 O   0  0  0  1  0  0
    4.6646    0.5683   -1.0469 O   0  0  0  1  0  0
    8.1900    1.6964   -3.6831 O   0  0  0  1  0  0
    6.3723    0.8458   -2.6243 N   0  0  0  1  0  0
    6.8819    1.5249   -0.5138 C   0  0  0  1  0  0
    5.8016    0.8948   -1.4064 C   0  0  0  1  0  0
    6.3569    2.7799    0.1825 C   0  0  0  1  0  0
    7.4627    0.4909    0.4604 C   0  0  0  1  0  0
    7.5449    1.4967   -2.6608 C   0  0  0  1  0  0
    5.8349    0.1956   -3.8130 C   0  0  0  1  0  0
    5.9903    3.4943   -0.5548 H   0  0
    7.1496    3.2683    0.7494 H   0  0
    5.5454    2.5400    0.8693 H   0  0
    8.2759    0.9244    1.0425 H   0  0
    7.8663   -0.3714   -0.0721 H   0  0
    6.7048    0.1310    1.1569 H   0  0
    4.9061   -0.3302   -3.6016 H   0  0
    6.5522   -0.5245   -4.2033 H   0  0
    5.6710    0.9353   -4.5892 H   0  0
  1  5  1  0
  1  9  1  0
  2  6  2  0
  3  9  2  0
  4  6  1  0
  4  9  1  0
  4 10  1  0
  5  6  1  0
  5  7  1  0
  5  8  1  0
  7 11  1  0
  7 12  1  0
  7 13  1  0
  8 14  1  0
  8 15  1  0
  8 16  1  0
 10 17  1  0
 10 18  1  0
 10 19  1  0
M  END
> <Name>
5576

> <Binding Energy>
-75.5027

> <Ligand Energy>
-9.0048

> <Protein Energy>
-7801.1566

> <Complex Energy>
-7885.6641

> <Complex Entropy>
-31.4754

> <Protein Entropy>
-31.4717

> <Ligand Entropy>
-17.1381

> <Entropic Energy>
17.1343

> <AbsoluteEnergy>
12.6652

> <ConfNumber>
1

> <IonizationIndex>
1

> <MOL_NUMBER>
194

> <NumberOfIonizations>
1

> <NumberOfStereoisomers>
1

> <NumberOfTautomers>
1

> <PUBCHEM_ATOM_DEF_STEREO_COUNT>
0

> <PUBCHEM_ATOM_UDEF_STEREO_COUNT>
0

> <PUBCHEM_BOND_DEF_STEREO_COUNT>
0

> <PUBCHEM_BOND_UDEF_STEREO_COUNT>
0

> <PUBCHEM_CACTVS_TAUTO_COUNT>
1

> <PUBCHEM_COMPONENT_COUNT>
1

> <PUBCHEM_COMPOUND_CID>
5576

> <PUBCHEM_CONFORMER_DIVERSEORDER>
1

> <PUBCHEM_CONFORMER_ID>
000015C800000001

> <PUBCHEM_CONFORMER_RMSD>
0.4

> <PUBCHEM_COORDINATE_TYPE>
2
5
10

> <PUBCHEM_EFFECTIVE_ROTOR_COUNT>
0.6

> <PUBCHEM_FEATURE_SELFOVERLAP>
20.297

> <PUBCHEM_HEAVY_ATOM_COUNT>
10

> <PUBCHEM_ISOTOPIC_ATOM_COUNT>
0

> <PUBCHEM_MMFF94_ENERGY>
13.0399

> <PUBCHEM_MMFF94_PARTIAL_CHARGES>
8
1 -0.43
10 0.3
2 -0.57
3 -0.57
4 -0.42
5 0.34
6 0.57
9 0.78

> <PUBCHEM_PHARMACOPHORE_FEATURES>
4
1 2 acceptor
1 3 acceptor
3 5 7 8 hydrophobe
5 1 4 5 6 9 rings

> <PUBCHEM_SHAPE_FINGERPRINT>
12423570 1 17823986838315288773
15310529 11 16878523240795043870
16945 1 18338798918631605926
21040471 1 18410856598336920616
23552423 10 18189620612864830974
2748010 2 18408603668936131271
29004967 10 18048610221849736811
5084963 1 18058434431295178467

> <PUBCHEM_SHAPE_MULTIPOLES>
183.21
2.77
1.72
0.94
0.42
0.28
0.01
-0.12
0
0.71
-0.01
-0.73
-0.07
0.01

> <PUBCHEM_SHAPE_SELFOVERLAP>
376.169

> <PUBCHEM_SHAPE_VOLUME>
109.2

> <RelativeEnergy>
0

> <StereoisomerIndex>
1

> <TautomerIndex>
1

> <POSE_NUMBER>
1

> <LibDockScore>
53.3268

> <HotSpots>
7.61,1.27,1.95,A,80,7
7.61,2.87,-1.05,A,58,9
7.21,1.27,-2.85,A,46,10

> <-In-Situ Starting Energy>
-890.811398

> <-In-Situ Final Energy>
33.9941484

> <In-Situ Gradient>
0.000975699442

$$$$
5838
  SciTegic09142310043D

 33 34  0  0  0  0            999 V2000
    8.9018    1.1229    1.6474 O   0  0  0  1  0  0
    4.1846    1.8000    0.9440 O   0  0  0  1  0  0
    6.6628    4.6994    3.4021 O   0  0  0  1  0  0
    7.7712    2.8346    2.5342 N   0  0  0  1  0  0
    5.4834    3.0467    2.3044 N   0  0  0  1  0  0
    6.5634    1.2356    1.0463 C   0  0  1  1  0  0
    6.7317    1.4383   -0.4525 C   0  0  0  1  0  0
    5.9623    0.4710   -1.3369 C   0  0  0  1  0  0
    6.1216    0.7266   -2.8392 C   0  0  0  1  0  0
    6.3650   -0.2431    1.4680 C   0  0  0  1  0  0
    7.5431    1.1276   -3.1951 C   0  0  0  1  0  0
    7.9092    2.4182   -2.4581 C   0  0  0  1  0  0
    7.5566    2.3560   -1.0025 C   0  0  0  1  0  0
    7.8513    1.7251    1.7764 C   0  0  0  1  0  0
    5.2942    2.0418    1.4316 C   0  0  0  1  0  0
    7.4936   -1.2341    1.1319 C   0  0  0  1  0  0
    6.6466    3.5231    2.7571 C   0  0  0  1  0  0
    7.4488    4.8600    3.9042 H   0  0
    4.6928    3.5989    2.5606 H   0  0
    4.9010    0.5125   -1.0963 H   0  0
    6.2791   -0.5501   -1.1375 H   0  0
    5.8023   -0.1366   -3.4212 H   0  0
    5.4688    1.5429   -3.1187 H   0  0
    6.1433   -0.3137    2.5346 H   0  0
    5.4743   -0.5899    0.9629 H   0  0
    7.6503    1.2505   -4.2711 H   0  0
    8.2213    0.3250   -2.9048 H   0  0
    8.9538    2.6525   -2.5865 H   0  0
    7.3844    3.2684   -2.8751 H   0  0
    8.1119    3.0527   -0.4022 H   0  0
    8.2809   -1.1865    1.8803 H   0  0
    7.9509   -1.0378    0.1626 H   0  0
    7.1284   -2.2613    1.1197 H   0  0
  1 14  2  0
  2 15  2  0
  3 17  1  0
  4 14  1  0
  4 17  2  0
  5 15  1  0
  5 17  1  0
  6  7  1  0
  6 10  1  0
  6 14  1  0
  6 15  1  0
  7  8  1  0
  7 13  2  0
  8  9  1  0
  9 11  1  0
 10 16  1  0
 11 12  1  0
 12 13  1  0
  3 18  1  0
  5 19  1  0
  8 20  1  0
  8 21  1  0
  9 22  1  0
  9 23  1  0
 10 24  1  0
 10 25  1  0
 11 26  1  0
 11 27  1  0
 12 28  1  0
 12 29  1  0
 13 30  1  0
 16 31  1  0
 16 32  1  0
 16 33  1  0
M  END
> <Name>
5838

> <Binding Energy>
-2.2011

> <Ligand Energy>
49.8383

> <Protein Energy>
-7801.1566

> <Complex Energy>
-7753.5195

> <Complex Entropy>
-31.4779

> <Protein Entropy>
-31.4717

> <Ligand Entropy>
-18.586

> <Entropic Energy>
18.5797

> <AbsoluteEnergy>
24.9353

> <ConfNumber>
13

> <Ionization pH>
7.48_P

> <IonizationIndex>
1

> <MOL_NUMBER>
213

> <NumberOfIonizations>
2

> <NumberOfStereoisomers>
2

> <NumberOfTautomers>
8

> <PUBCHEM_ATOM_DEF_STEREO_COUNT>
0

> <PUBCHEM_ATOM_UDEF_STEREO_COUNT>
0

> <PUBCHEM_BOND_DEF_STEREO_COUNT>
0

> <PUBCHEM_BOND_UDEF_STEREO_COUNT>
0

> <PUBCHEM_CACTVS_TAUTO_COUNT>
5

> <PUBCHEM_COMPONENT_COUNT>
1

> <PUBCHEM_COMPOUND_CID>
5838

> <PUBCHEM_CONFORMER_DIVERSEORDER>
1
3
4
2
5

> <PUBCHEM_CONFORMER_ID>
000016CE00000001

> <PUBCHEM_CONFORMER_RMSD>
0.6

> <PUBCHEM_COORDINATE_TYPE>
2
5
10

> <PUBCHEM_EFFECTIVE_ROTOR_COUNT>
3.4

> <PUBCHEM_FEATURE_SELFOVERLAP>
40.638

> <PUBCHEM_HEAVY_ATOM_COUNT>
17

> <PUBCHEM_ISOTOPIC_ATOM_COUNT>
0

> <PUBCHEM_MMFF94_ENERGY>
29.5085

> <PUBCHEM_MMFF94_PARTIAL_CHARGES>
16
1 -0.57
12 0.14
13 -0.29
14 0.57
15 0.57
17 0.69
2 -0.57
28 0.15
3 -0.57
32 0.37
33 0.37
4 -0.49
5 -0.49
6 0.26
7 -0.28
8 0.14

> <PUBCHEM_PHARMACOPHORE_FEATURES>
8
1 1 acceptor
1 16 hydrophobe
1 2 acceptor
1 3 acceptor
1 4 donor
1 5 donor
6 4 5 6 14 15 17 rings
6 7 8 9 11 12 13 rings

> <PUBCHEM_SHAPE_FINGERPRINT>
10219947 1 15769769126522950002
10863032 1 18341051907993087068
11471102 22 16200146552099466914
11578080 2 17315044750190628428
12423570 1 12998447191180568232
12592029 89 18196937897202767152
13134695 92 17489290967656235673
14817 1 12149315951939294680
16945 1 18267020548759540751
20233049 118 18043244639888337261
20511035 2 17703213139609189645
20600515 1 17988089880757976636
20645477 70 18264196088836756327
21069387 34 17916283040270679239
21452121 71 18337686255987971726
21501502 16 18200876309134983631
232386 152 18410298003638677823
23419403 2 18043221644643821892
23559900 14 18197775501951653582
2748010 2 18262786467421309741
528886 8 15864079732195427656
568465 68 17418089892965387399
7364860 26 18339360897701002233
74978 22 18410291437050140479
81228 2 17199136330070356041
81539 233 18048029958883587116

> <PUBCHEM_SHAPE_MULTIPOLES>
322.28
4.92
2.21
1.48
3.46
0.67
-0.02
-2.18
-0.07
-1.21
0.03
-0.73
0.15
-0.03

> <PUBCHEM_SHAPE_SELFOVERLAP>
681.336

> <PUBCHEM_SHAPE_VOLUME>
177.7

> <RelativeEnergy>
4.04499

> <StereoisomerIndex>
1

> <TautomerIndex>
5

> <POSE_NUMBER>
1

> <LibDockScore>
95.6748

> <HotSpots>
7.21,1.27,-2.85,A,46,11
7.01,-0.53,1.54,A,78,16
6.61,4.27,3.15,A,86,17

> <-In-Situ Starting Energy>
-182.969713

> <-In-Situ Final Energy>
5.53956021

> <In-Situ Gradient>
0.0009137546328

$$$$
5842
  SciTegic09142310043D

 26 26  0  0  0  0            999 V2000
    6.9918    0.9342    3.1644 O   0  0  0  1  0  0
    8.1157    0.5926   -1.4235 O   0  0  0  1  0  0
    8.0787   -3.0833    1.4137 O   0  0  0  1  0  0
    7.4985   -1.0092    2.2063 N   0  0  0  1  0  0
    8.0710   -1.2089   -0.0230 N   0  5  0  1  0  0
    7.1945    0.9311    0.7669 C   0  0  0  1  0  0
    5.7265    0.8436    0.3435 C   0  0  0  1  0  0
    7.7234    2.3956    0.8571 C   0  0  0  1  0  0
    7.2392    0.2833    2.1617 C   0  0  0  1  0  0
    7.8703    0.0962   -0.3314 C   0  0  0  1  0  0
    4.8222    1.4536    1.3596 C   0  0  0  1  0  0
    8.7169    2.6409    1.9713 C   0  0  0  1  0  0
    7.8620   -1.7777    1.1845 C   0  0  0  1  0  0
    3.8742    2.3114    1.0526 C   0  0  0  1  0  0
    8.5088    3.4619    3.0156 C   0  0  0  1  0  0
    8.3762   -3.5438    0.6431 H   0  0
    5.5803    1.3334   -0.6224 H   0  0
    5.4167   -0.1955    0.2054 H   0  0
    8.1635    2.7111   -0.0900 H   0  0
    6.8812    3.0700    1.0117 H   0  0
    4.9487    1.2445    2.4033 H   0  0
    9.6421    2.1104    1.9103 H   0  0
    3.6647    2.5920    0.0352 H   0  0
    3.3345    2.7546    1.8707 H   0  0
    7.5902    4.0079    3.1333 H   0  0
    9.2586    3.6062    3.7703 H   0  0
  1  9  2  0
  2 10  2  0
  3 13  1  0
  4  9  1  0
  4 13  2  0
  5 10  1  0
  5 13  1  0
  6  7  1  0
  6  8  1  0
  6  9  1  0
  6 10  1  0
  7 11  1  0
  8 12  1  0
 11 14  2  0
 12 15  2  0
  3 16  1  0
  7 17  1  0
  7 18  1  0
  8 19  1  0
  8 20  1  0
 11 21  1  0
 12 22  1  0
 14 23  1  0
 14 24  1  0
 15 25  1  0
 15 26  1  0
M  CHG  1   5  -1
M  END
> <Name>
5842

> <Binding Energy>
-16.7919

> <Ligand Energy>
45.802

> <Protein Energy>
-7801.1566

> <Complex Energy>
-7772.1465

> <Complex Entropy>
-31.4772

> <Protein Entropy>
-31.4717

> <Ligand Entropy>
-18.2491

> <Entropic Energy>
18.2436

> <AbsoluteEnergy>
44.0389

> <ConfNumber>
114

> <Ionization pH>
7.79_D

> <IonizationIndex>
2

> <MOL_NUMBER>
230

> <NumberOfIonizations>
2

> <NumberOfStereoisomers>
1

> <NumberOfTautomers>
3

> <PUBCHEM_ATOM_DEF_STEREO_COUNT>
0

> <PUBCHEM_ATOM_UDEF_STEREO_COUNT>
0

> <PUBCHEM_BOND_DEF_STEREO_COUNT>
0

> <PUBCHEM_BOND_UDEF_STEREO_COUNT>
0

> <PUBCHEM_CACTVS_TAUTO_COUNT>
5

> <PUBCHEM_COMPONENT_COUNT>
1

> <PUBCHEM_COMPOUND_CID>
5842

> <PUBCHEM_CONFORMER_DIVERSEORDER>
3
12
13
7
9
8
10
1
6
11
14
4
5
2

> <PUBCHEM_CONFORMER_ID>
000016D200000003

> <PUBCHEM_CONFORMER_RMSD>
0.6

> <PUBCHEM_COORDINATE_TYPE>
2
5
10

> <PUBCHEM_EFFECTIVE_ROTOR_COUNT>
4.6

> <PUBCHEM_FEATURE_SELFOVERLAP>
40.636

> <PUBCHEM_HEAVY_ATOM_COUNT>
15

> <PUBCHEM_ISOTOPIC_ATOM_COUNT>
0

> <PUBCHEM_MMFF94_ENERGY>
39.1147

> <PUBCHEM_MMFF94_PARTIAL_CHARGES>
23
1 -0.57
10 0.57
11 -0.29
12 -0.29
13 0.69
14 -0.3
15 -0.3
2 -0.57
20 0.37
21 0.37
22 0.15
23 0.15
24 0.15
25 0.15
26 0.15
27 0.15
3 -0.57
4 -0.49
5 -0.49
6 0.12
7 0.14
8 0.14
9 0.57

> <PUBCHEM_PHARMACOPHORE_FEATURES>
8
1 1 acceptor
1 14 hydrophobe
1 15 hydrophobe
1 2 acceptor
1 3 acceptor
1 4 donor
1 5 donor
6 4 5 6 9 10 13 rings

> <PUBCHEM_SHAPE_FINGERPRINT>
1 1 18342464685866247591
10702982 57 18270398415962720167
12138202 78 17979072682903877173
13024252 1 15865449831152771036
13132413 78 16906400052236328049
13380536 261 16750166601039252861
14617773 55 17467916710699261124
14713566 1 17905873022570316175
14817 1 11664379629700043848
15001771 113 17328574532648397894
15906896 17 17974300016238898219
16945 1 18125458413925073011
20379382 53 18125725582460763589
21524375 3 18335421313258323793
23419403 2 17756707429600691686
305870 269 18342748381473042465
430814 3 18413099571992728393
53812653 217 17899102139983122660
576247 118 17259624746949636527
7364860 26 18197507216439291665
81228 2 17554327299487727763

> <PUBCHEM_SHAPE_MULTIPOLES>
281.12
3.34
3.08
1.41
2.02
2.22
-0.12
-2.56
-0.2
-2.24
0.1
0.08
-0.01
0.8

> <PUBCHEM_SHAPE_SELFOVERLAP>
579.64

> <PUBCHEM_SHAPE_VOLUME>
158.1

> <RelativeEnergy>
18.8524

> <StereoisomerIndex>
1

> <TautomerIndex>
3

> <POSE_NUMBER>
1

> <LibDockScore>
90.788

> <HotSpots>
7.21,3.07,2.94,A,85,12
6.61,-0.93,-0.06,A,65,13
6.61,4.27,3.15,A,86,15

> <-In-Situ Starting Energy>
-12970.7205

> <-In-Situ Final Energy>
-12.8793021

> <In-Situ Gradient>
0.0009954420975

$$$$
5917
  SciTegic09142310043D

 20 21  0  0  0  0            999 V2000
    6.1978    9.0723   -1.3141 N   0  0  0  1  0  0
    5.6570    8.6651   -0.1247 N   0  0  0  1  0  0
    5.9173   10.8250   -0.1921 N   0  0  0  1  0  0
    5.4198    9.8242    0.5877 N   0  0  0  1  0  0
    8.2981    9.2438   -3.6777 C   0  0  0  1  0  0
    6.8824    8.7024   -3.7669 C   0  0  0  1  0  0
    8.4355   10.2596   -2.5551 C   0  0  0  1  0  0
    6.4404    8.1265   -2.4115 C   0  0  0  1  0  0
    7.1833   11.1404   -2.3593 C   0  0  0  1  0  0
    6.4138   10.3813   -1.3241 C   0  0  0  1  0  0
    9.0089    8.4320   -3.5201 H   0  0
    8.5682    9.6972   -4.6288 H   0  0
    6.9011    7.9617   -4.5613 H   0  0
    6.1741    9.4503   -4.1131 H   0  0
    9.3900   10.7143   -2.6846 H   0  0
    8.6280    9.8228   -1.5938 H   0  0
    5.4863    7.6555   -2.4436 H   0  0
    7.0979    7.3076   -2.1804 H   0  0
    7.3761   12.1333   -1.9657 H   0  0
    6.6027   11.2888   -3.2679 H   0  0
  1  2  1  0
  1  8  1  0
  1 10  1  0
  2  4  2  0
  3  4  1  0
  3 10  2  0
  5  6  1  0
  5  7  1  0
  6  8  1  0
  7  9  1  0
  9 10  1  0
  5 11  1  0
  5 12  1  0
  6 13  1  0
  6 14  1  0
  7 15  1  0
  7 16  1  0
  8 17  1  0
  8 18  1  0
  9 19  1  0
  9 20  1  0
M  END
> <Name>
5917

> <Binding Energy>
-2.6959

> <Ligand Energy>
31.238

> <Protein Energy>
-7801.1566

> <Complex Energy>
-7772.6145

> <Complex Entropy>
-31.4758

> <Protein Entropy>
-31.4717

> <Ligand Entropy>
-17.0532

> <Entropic Energy>
17.0491

> <AbsoluteEnergy>
15.1286

> <ConfNumber>
2

> <IonizationIndex>
1

> <MOL_NUMBER>
233

> <NumberOfIonizations>
1

> <NumberOfStereoisomers>
1

> <NumberOfTautomers>
1

> <PUBCHEM_ATOM_DEF_STEREO_COUNT>
0

> <PUBCHEM_ATOM_UDEF_STEREO_COUNT>
0

> <PUBCHEM_BOND_DEF_STEREO_COUNT>
0

> <PUBCHEM_BOND_UDEF_STEREO_COUNT>
0

> <PUBCHEM_CACTVS_TAUTO_COUNT>
1

> <PUBCHEM_COMPONENT_COUNT>
1

> <PUBCHEM_COMPOUND_CID>
5917

> <PUBCHEM_CONFORMER_DIVERSEORDER>
1
2
3
4

> <PUBCHEM_CONFORMER_ID>
0000171D00000001

> <PUBCHEM_CONFORMER_RMSD>
0.4

> <PUBCHEM_COORDINATE_TYPE>
2
5
10

> <PUBCHEM_EFFECTIVE_ROTOR_COUNT>
1

> <PUBCHEM_FEATURE_SELFOVERLAP>
15.271

> <PUBCHEM_HEAVY_ATOM_COUNT>
10

> <PUBCHEM_ISOTOPIC_ATOM_COUNT>
0

> <PUBCHEM_MMFF94_ENERGY>
4.813

> <PUBCHEM_MMFF94_PARTIAL_CHARGES>
6
1 0.31
10 0.01
2 -0.42
3 -0.34
8 0.26
9 0.18

> <PUBCHEM_PHARMACOPHORE_FEATURES>
3
3 1 3 10 cation
5 1 2 3 4 10 rings
7 1 5 6 7 8 9 10 rings

> <PUBCHEM_SHAPE_FINGERPRINT>
12423570 1 15599481593282740913
12897270 3 18410572920068211661
16945 1 18411134736113278413
17844478 74 18041574619211613051
18185500 45 17905601108269804219
21040471 1 18337667516607952096
23552423 10 18334013908283307158
241688 4 18194114342609785193
2748010 2 16969137627450332709
29004967 10 16271928207468292384
5084963 1 18411136905161550657
66348 1 17834393415255860045

> <PUBCHEM_SHAPE_MULTIPOLES>
185.87
3.15
1.78
0.69
0.42
0.02
-0.03
0.05
0.53
-0.38
-0.12
-0.1
-0.01
0

> <PUBCHEM_SHAPE_SELFOVERLAP>
380.594

> <PUBCHEM_SHAPE_VOLUME>
104.3

> <RelativeEnergy>
2.97133

> <StereoisomerIndex>
1

> <TautomerIndex>
1

> <POSE_NUMBER>
1

> <LibDockScore>
74.6209

> <HotSpots>
4.21,9.07,-0.26,P,84,3
8.01,10.07,-2.25,A,50,5
7.21,9.27,-3.25,A,45,6

> <-In-Situ Starting Energy>
-312.052191

> <-In-Situ Final Energy>
-25.8202521

> <In-Situ Gradient>
0.0009012896486

$$$$
6054
  SciTegic09142310043D

 19 19  0  0  0  0            999 V2000
    9.1477    8.6652   -5.7499 O   0  0  0  1  0  0
    7.3727    8.5006   -4.0275 C   0  0  0  1  0  0
    6.8362    9.1064   -2.7481 C   0  0  0  1  0  0
    8.7488    9.0467   -4.4427 C   0  0  0  1  0  0
    6.2966    8.3045   -1.7496 C   0  0  0  1  0  0
    6.8791   10.4767   -2.5245 C   0  0  0  1  0  0
    6.0097    8.8278   -0.4943 C   0  0  0  1  0  0
    6.6062   11.0069   -1.2696 C   0  0  0  1  0  0
    6.2033   10.1737   -0.2400 C   0  0  0  1  0  0
    9.2646    7.7203   -5.7821 H   0  0
    6.6338    8.6418   -4.8134 H   0  0
    7.5099    7.4330   -3.8809 H   0  0
    8.7151   10.1227   -4.4570 H   0  0
    9.5177    8.7847   -3.7067 H   0  0
    6.1747    7.2424   -1.9020 H   0  0
    7.1406   11.1237   -3.3389 H   0  0
    5.6865    8.1760    0.3011 H   0  0
    6.7330   12.0623   -1.0810 H   0  0
    6.0461   10.5595    0.7567 H   0  0
  1  4  1  0
  2  3  1  0
  2  4  1  0
  3  5  2  0
  3  6  1  0
  5  7  1  0
  6  8  2  0
  7  9  2  0
  8  9  1  0
  1 10  1  0
  2 11  1  0
  2 12  1  0
  4 13  1  0
  4 14  1  0
  5 15  1  0
  6 16  1  0
  7 17  1  0
  8 18  1  0
  9 19  1  0
M  END
> <Name>
6054

> <Binding Energy>
-8.6587

> <Ligand Energy>
9.6059

> <Protein Energy>
-7801.1566

> <Complex Energy>
-7800.2095

> <Complex Entropy>
-31.4753

> <Protein Entropy>
-31.4717

> <Ligand Entropy>
-16.9588

> <Entropic Energy>
16.9552

> <AbsoluteEnergy>
15.8567

> <ConfNumber>
7

> <IonizationIndex>
1

> <MOL_NUMBER>
238

> <NumberOfIonizations>
1

> <NumberOfStereoisomers>
1

> <NumberOfTautomers>
1

> <PUBCHEM_ATOM_DEF_STEREO_COUNT>
0

> <PUBCHEM_ATOM_UDEF_STEREO_COUNT>
0

> <PUBCHEM_BOND_DEF_STEREO_COUNT>
0

> <PUBCHEM_BOND_UDEF_STEREO_COUNT>
0

> <PUBCHEM_CACTVS_TAUTO_COUNT>
1

> <PUBCHEM_COMPONENT_COUNT>
1

> <PUBCHEM_COMPOUND_CID>
6054

> <PUBCHEM_CONFORMER_DIVERSEORDER>
2
1
4
3

> <PUBCHEM_CONFORMER_ID>
000017A600000002

> <PUBCHEM_CONFORMER_RMSD>
0.4

> <PUBCHEM_COORDINATE_TYPE>
2
5
10

> <PUBCHEM_EFFECTIVE_ROTOR_COUNT>
2

> <PUBCHEM_FEATURE_SELFOVERLAP>
15.223

> <PUBCHEM_HEAVY_ATOM_COUNT>
9

> <PUBCHEM_ISOTOPIC_ATOM_COUNT>
0

> <PUBCHEM_MMFF94_ENERGY>
18.5325

> <PUBCHEM_MMFF94_PARTIAL_CHARGES>
15
1 -0.68
14 0.15
15 0.15
16 0.15
17 0.15
18 0.15
19 0.4
2 0.14
3 -0.14
4 0.28
5 -0.15
6 -0.15
7 -0.15
8 -0.15
9 -0.15

> <PUBCHEM_PHARMACOPHORE_FEATURES>
3
1 1 acceptor
1 1 donor
6 3 5 6 7 8 9 rings

> <PUBCHEM_SHAPE_FINGERPRINT>
12716758 59 18201435835614556010
12897270 3 18342460374003854134
15310529 11 17530959159898107689
15775835 57 18041286491077658780
16714656 1 18343300357858752067
16945 1 18272078392747598275
20645464 45 17345732162460116930
20653085 51 18115319885924957196
21040471 1 18055341453704860345
23552423 10 18264766567087164618
2748010 2 17981586467375309279
29004967 10 15051724296439367570
369184 2 8718825366557397991
5084963 1 18264762169082383946

> <PUBCHEM_SHAPE_MULTIPOLES>
179.35
3.67
1.37
0.84
1.42
0.05
0.02
0.21
-0.86
-0.43
-0.03
0.26
0.03
-0.34

> <PUBCHEM_SHAPE_SELFOVERLAP>
363.454

> <PUBCHEM_SHAPE_VOLUME>
104.6

> <RelativeEnergy>
4.31749

> <StereoisomerIndex>
1

> <TautomerIndex>
1

> <POSE_NUMBER>
1

> <LibDockScore>
71.755

> <HotSpots>
6.81,8.27,-5.05,P,59,1
6.61,10.07,-1.25,A,54,6
6.21,10.67,0.94,A,74,9

> <-In-Situ Starting Energy>
-176.429304

> <-In-Situ Final Energy>
14.9714315

> <In-Situ Gradient>
0.0009767644695

$$$$
6274
  SciTegic09142310043D

 20 20  0  0  0  0            999 V2000
    9.1657    8.4102   -6.2523 O   0  5  0  1  0  0
   10.0549   10.1179   -5.3057 O   0  0  0  1  0  0
    7.0510   10.5441   -1.5693 N   0  0  0  1  0  0
    9.5406    9.3494   -2.9540 N   0  3  0  1  0  0
    6.0468    8.9403   -0.3874 N   0  0  0  1  0  0
    7.2384    9.4625   -3.8484 C   0  0  0  1  0  0
    8.6347    8.8236   -3.9584 C   0  0  1  1  0  0
    6.8251    9.4932   -2.3925 C   0  0  0  1  0  0
    9.3196    9.1361   -5.2842 C   0  0  0  1  0  0
    6.1903    8.4839   -1.6506 C   0  0  0  1  0  0
    6.5740   10.1743   -0.3657 C   0  0  0  1  0  0
    7.4326   11.4199   -1.7800 H   0  0
    9.0249    9.8629   -2.2142 H   0  0
   10.1446    9.9779   -3.5250 H   0  0
   10.1770    8.6456   -2.5194 H   0  0
    6.5116    8.8942   -4.4299 H   0  0
    7.2236   10.4808   -4.2345 H   0  0
    8.5591    7.7481   -3.8405 H   0  0
    5.8705    7.5144   -1.9987 H   0  0
    6.6043   10.7882    0.5236 H   0  0
  1  9  1  0
  2  9  2  0
  3  8  1  0
  3 11  1  0
  4  7  1  0
  5 10  1  0
  5 11  2  0
  6  7  1  0
  6  8  1  0
  7  9  1  0
  8 10  2  0
  3 12  1  0
  4 13  1  0
  4 14  1  0
  4 15  1  0
  6 16  1  0
  6 17  1  0
  7 18  1  0
 10 19  1  0
 11 20  1  0
M  CHG  2   1  -1   4   1
M  END
> <Name>
6274

> <Binding Energy>
-2.9287

> <Ligand Energy>
-103.8048

> <Protein Energy>
-7801.1566

> <Complex Energy>
-7907.8901

> <Complex Entropy>
-31.4764

> <Protein Entropy>
-31.4717

> <Ligand Entropy>
-17.4939

> <Entropic Energy>
17.4892

> <AbsoluteEnergy>
3.33247

> <ConfNumber>
26

> <Ionization pH>
7.5

> <IonizationIndex>
1

> <MOL_NUMBER>
252

> <NumberOfIonizations>
1

> <NumberOfStereoisomers>
1

> <NumberOfTautomers>
2

> <PUBCHEM_ATOM_DEF_STEREO_COUNT>
1

> <PUBCHEM_ATOM_UDEF_STEREO_COUNT>
0

> <PUBCHEM_BOND_DEF_STEREO_COUNT>
0

> <PUBCHEM_BOND_UDEF_STEREO_COUNT>
0

> <PUBCHEM_CACTVS_TAUTO_COUNT>
2

> <PUBCHEM_COMPONENT_COUNT>
1

> <PUBCHEM_COMPOUND_CID>
6274

> <PUBCHEM_CONFORMER_DIVERSEORDER>
1
9
16
12
4
20
7
8
14
15
3
6
2
11
19
17
10
5
13
18

> <PUBCHEM_CONFORMER_ID>
188200000001

> <PUBCHEM_CONFORMER_RMSD>
0.6

> <PUBCHEM_COORDINATE_TYPE>
2
5
10

> <PUBCHEM_EFFECTIVE_ROTOR_COUNT>
3

> <PUBCHEM_FEATURE_SELFOVERLAP>
40.654

> <PUBCHEM_HEAVY_ATOM_COUNT>
11

> <PUBCHEM_ISOTOPIC_ATOM_COUNT>
0

> <PUBCHEM_MMFF94_ENERGY>
7.9539

> <PUBCHEM_MMFF94_PARTIAL_CHARGES>
17
1 -0.65
10 0.08
11 0.04
15 0.27
16 0.15
17 0.36
18 0.36
19 0.15
2 -0.57
20 0.5
3 0.03
4 -0.99
5 -0.57
6 0.18
7 0.33
8 -0.33
9 0.66

> <PUBCHEM_PHARMACOPHORE_FEATURES>
8
1 1 acceptor
1 2 acceptor
1 3 donor
1 4 cation
1 4 donor
3 1 2 9 anion
3 3 5 11 cation
5 3 5 8 10 11 rings

> <PUBCHEM_SHAPE_FINGERPRINT>
12897270 3 14056993979206604083
12932764 1 18271807968700595688
15310529 11 17895482521612900700
16945 1 17969215655460391109
20201158 50 17632574907814046286
20645464 45 17846491543443691394
23235685 24 18339075965433964901
23552423 10 17968380168362411957
29004967 10 17203891859937136848
369184 2 14908180854499463455

> <PUBCHEM_SHAPE_MULTIPOLES>
199.69
4.3
1.38
1
0.59
0.14
-0.02
0.46
-0.2
-1.01
0.05
0.32
0.1
0.1

> <PUBCHEM_SHAPE_SELFOVERLAP>
409.56

> <PUBCHEM_SHAPE_VOLUME>
117.2

> <RelativeEnergy>
1.2288

> <StereoisomerIndex>
1

> <TautomerIndex>
2

> <POSE_NUMBER>
1

> <LibDockScore>
86.5188

> <HotSpots>
9.81,9.87,-3.46,P,67,4
8.41,8.07,-4.86,A,38,9
6.41,11.47,-0.06,A,67,11

> <-In-Situ Starting Energy>
38.901376

> <-In-Situ Final Energy>
74.6881204

> <In-Situ Gradient>
0.0007862956101

$$$$
6306
  SciTegic09142310043D

 22 21  0  0  0  0            999 V2000
    6.2493   10.9062    0.7215 O   0  5  0  1  0  0
    6.4236   12.6479   -0.5367 O   0  0  0  1  0  0
    7.3813   11.2089   -2.3767 N   0  3  0  1  0  0
    6.7307    9.1198   -1.4078 C   0  0  2  1  0  0
    6.3761   10.5764   -1.6121 C   0  0  1  1  0  0
    7.0049    8.3931   -2.7472 C   0  0  0  1  0  0
    5.6689    8.3660   -0.5962 C   0  0  0  1  0  0
    8.2359    8.8185   -3.5715 C   0  0  0  1  0  0
    6.3438   11.4299   -0.3697 C   0  0  0  1  0  0
    7.1773   11.0489   -3.3811 H   0  0
    8.2870   10.8134   -2.0587 H   0  0
    7.2745   12.1912   -2.0225 H   0  0
    7.6115    9.1725   -0.7823 H   0  0
    5.4549   10.7041   -2.1465 H   0  0
    6.1246    8.4892   -3.3805 H   0  0
    7.1051    7.3310   -2.5298 H   0  0
    4.9327    9.0372   -0.1543 H   0  0
    6.1175    7.8210    0.2329 H   0  0
    5.1305    7.6461   -1.2091 H   0  0
    9.1128    9.0194   -2.9579 H   0  0
    8.0381    9.6870   -4.1964 H   0  0
    8.5086    8.0183   -4.2608 H   0  0
  1  9  1  0
  2  9  2  0
  3  5  1  0
  4  5  1  0
  4  6  1  0
  4  7  1  0
  5  9  1  0
  6  8  1  0
  3 10  1  0
  3 11  1  0
  3 12  1  0
  4 13  1  0
  5 14  1  0
  6 15  1  0
  6 16  1  0
  7 17  1  0
  7 18  1  0
  7 19  1  0
  8 20  1  0
  8 21  1  0
  8 22  1  0
M  CHG  2   1  -1   3   1
M  END
> <Name>
6306

> <Binding Energy>
-8.726

> <Ligand Energy>
-89.5816

> <Protein Energy>
-7801.1566

> <Complex Energy>
-7899.4642

> <Complex Entropy>
-31.4756

> <Protein Entropy>
-31.4717

> <Ligand Entropy>
-17.0535

> <Entropic Energy>
17.0495

> <AbsoluteEnergy>
11.2012

> <ConfNumber>
27

> <Ionization pH>
7.5

> <IonizationIndex>
1

> <MOL_NUMBER>
253

> <NumberOfIonizations>
1

> <NumberOfStereoisomers>
1

> <NumberOfTautomers>
1

> <PUBCHEM_ATOM_DEF_STEREO_COUNT>
2

> <PUBCHEM_ATOM_UDEF_STEREO_COUNT>
0

> <PUBCHEM_BOND_DEF_STEREO_COUNT>
0

> <PUBCHEM_BOND_UDEF_STEREO_COUNT>
0

> <PUBCHEM_CACTVS_TAUTO_COUNT>
1

> <PUBCHEM_COMPONENT_COUNT>
1

> <PUBCHEM_COMPOUND_CID>
6306

> <PUBCHEM_CONFORMER_DIVERSEORDER>
1
8
15
2
4
16
10
14
5
7
12
13
6
9
11
3

> <PUBCHEM_CONFORMER_ID>
000018A200000001

> <PUBCHEM_CONFORMER_RMSD>
0.6

> <PUBCHEM_COORDINATE_TYPE>
2
5
10

> <PUBCHEM_EFFECTIVE_ROTOR_COUNT>
3

> <PUBCHEM_FEATURE_SELFOVERLAP>
35.58

> <PUBCHEM_HEAVY_ATOM_COUNT>
9

> <PUBCHEM_ISOTOPIC_ATOM_COUNT>
0

> <PUBCHEM_MMFF94_ENERGY>
8.591

> <PUBCHEM_MMFF94_PARTIAL_CHARGES>
8
1 -0.65
2 -0.57
20 0.36
21 0.36
22 0.5
3 -0.99
5 0.33
9 0.66

> <PUBCHEM_PHARMACOPHORE_FEATURES>
7
1 1 acceptor
1 2 acceptor
1 3 cation
1 3 donor
1 7 hydrophobe
1 8 hydrophobe
3 1 2 9 anion

> <PUBCHEM_SHAPE_FINGERPRINT>
14390081 3 17988923340795149985
15775835 57 18342177743407050089
18185500 45 18410566280106755181
20653085 51 18130244734222865096
20711978 78 16950847990193428539
21040471 1 18201444623196706381
23552423 10 18410576175601031871
24536 1 18187651335593753062
29004967 10 17168424844207875553
5084963 1 18188757461608289094

> <PUBCHEM_SHAPE_MULTIPOLES>
168.5
3.29
1.53
1.05
0.65
0.29
-0.04
-1.32
0.1
0.61
0.06
-0.36
0.02
-0.55

> <PUBCHEM_SHAPE_SELFOVERLAP>
311.09

> <PUBCHEM_SHAPE_VOLUME>
106.1

> <RelativeEnergy>
4.24992

> <StereoisomerIndex>
1

> <TautomerIndex>
1

> <POSE_NUMBER>
1

> <LibDockScore>
62.7291

> <HotSpots>
4.21,9.07,-0.26,P,84,1
7.21,9.27,-3.25,A,45,6
8.61,9.67,-3.85,A,41,8

> <-In-Situ Starting Energy>
-171.669274

> <-In-Situ Final Energy>
31.4156428

> <In-Situ Gradient>
0.0008824213603

$$$$
6433
  SciTegic09142310043D

 32 31  0  0  0  0            999 V2000
    7.4138    2.3909   -0.5612 S   0  0  0  1  0  0
    6.7168    1.3760    2.0686 S   0  0  0  1  0  0
    8.6428    2.8817   -0.0279 O   0  0  0  1  0  0
    6.3040    3.2930   -0.5951 O   0  0  0  1  0  0
    7.9606    1.7520    2.6656 O   0  0  0  1  0  0
    6.0201    0.3079    2.7188 O   0  0  0  1  0  0
    6.8983    0.9295    0.3262 C   0  0  0  1  0  0
    7.9535   -0.1781    0.2779 C   0  0  0  1  0  0
    5.6110    0.4367   -0.3525 C   0  0  0  1  0  0
    7.7154    1.9424   -2.2565 C   0  0  0  1  0  0
    5.7049    2.8194    2.2504 C   0  0  0  1  0  0
    7.4784   -1.5748    0.7150 C   0  0  0  1  0  0
    8.3328    3.1572   -2.9454 C   0  0  0  1  0  0
    4.2510    2.3972    2.0722 C   0  0  0  1  0  0
    8.7476    0.1550    0.9362 H   0  0
    8.3626   -0.2694   -0.7221 H   0  0
    5.8360   -0.0333   -1.3108 H   0  0
    4.9139    1.2420   -0.5659 H   0  0
    5.1309   -0.3156    0.2605 H   0  0
    8.3980    1.1017   -2.3111 H   0  0
    6.7792    1.6463   -2.7289 H   0  0
    5.8481    3.1979    3.2581 H   0  0
    6.0543    3.6229    1.6125 H   0  0
    6.7251   -1.9811    0.0398 H   0  0
    7.0590   -1.5574    1.7166 H   0  0
    8.3034   -2.2867    0.7267 H   0  0
    9.2389    3.4647   -2.4413 H   0  0
    7.6697    4.0170   -2.8801 H   0  0
    8.5926    2.9505   -3.9816 H   0  0
    4.1226    1.5876    2.7698 H   0  0
    4.0206    2.0644    1.0685 H   0  0
    3.5274    3.1588    2.3592 H   0  0
  1  3  2  0
  1  4  2  0
  1  7  1  0
  1 10  1  0
  2  5  2  0
  2  6  2  0
  2  7  1  0
  2 11  1  0
  7  8  1  0
  7  9  1  0
  8 12  1  0
 10 13  1  0
 11 14  1  0
  8 15  1  0
  8 16  1  0
  9 17  1  0
  9 18  1  0
  9 19  1  0
 10 20  1  0
 10 21  1  0
 11 22  1  0
 11 23  1  0
 12 24  1  0
 12 25  1  0
 12 26  1  0
 13 27  1  0
 13 28  1  0
 13 29  1  0
 14 30  1  0
 14 31  1  0
 14 32  1  0
M  END
> <Name>
6433

> <Binding Energy>
-72.2001

> <Ligand Energy>
17.5651

> <Protein Energy>
-7801.1566

> <Complex Energy>
-7855.7916

> <Complex Entropy>
-31.4781

> <Protein Entropy>
-31.4717

> <Ligand Entropy>
-18.4139

> <Entropic Energy>
18.4075

> <AbsoluteEnergy>
5.71635

> <ConfNumber>
35

> <IonizationIndex>
1

> <MOL_NUMBER>
254

> <NumberOfIonizations>
1

> <NumberOfStereoisomers>
1

> <NumberOfTautomers>
1

> <PUBCHEM_ATOM_DEF_STEREO_COUNT>
0

> <PUBCHEM_ATOM_UDEF_STEREO_COUNT>
0

> <PUBCHEM_BOND_DEF_STEREO_COUNT>
0

> <PUBCHEM_BOND_UDEF_STEREO_COUNT>
0

> <PUBCHEM_CACTVS_TAUTO_COUNT>
1

> <PUBCHEM_COMPONENT_COUNT>
1

> <PUBCHEM_COMPOUND_CID>
6433

> <PUBCHEM_CONFORMER_DIVERSEORDER>
1
3
7
6
5
4
2

> <PUBCHEM_CONFORMER_ID>
192100000001

> <PUBCHEM_CONFORMER_RMSD>
0.6

> <PUBCHEM_COORDINATE_TYPE>
2
5
10

> <PUBCHEM_EFFECTIVE_ROTOR_COUNT>
5

> <PUBCHEM_FEATURE_SELFOVERLAP>
25.41

> <PUBCHEM_HEAVY_ATOM_COUNT>
14

> <PUBCHEM_ISOTOPIC_ATOM_COUNT>
0

> <PUBCHEM_MMFF94_ENERGY>
13.0399

> <PUBCHEM_MMFF94_PARTIAL_CHARGES>
9
1 1.09
10 0.11
11 0.11
2 1.09
3 -0.65
4 -0.65
5 -0.65
6 -0.65
7 0.21

> <PUBCHEM_PHARMACOPHORE_FEATURES>
5
1 12 hydrophobe
1 3 acceptor
1 4 acceptor
1 5 acceptor
1 6 acceptor

> <PUBCHEM_SHAPE_FINGERPRINT>
10702982 57 17256508735286153516
12423570 1 14508819904534074904
14648413 74 18045783644111981681
14817 1 11662848929210248772
15881359 60 17559381466572174077
16945 1 18337672039271909177
19021347 4 17329428861652022376
20511035 2 17843676905477752615
20711985 344 17910705105586222852
207724 885 18410014342813497409
20871998 184 17984132661226917222
21296965 67 18337667516597318131
22344851 341 17981336899288595592
23419403 2 17317843076102826276
23526113 38 17458351874296897073
23552423 10 18124873718826636023
2748010 2 18265316340075419733
528886 8 18192991745126987976
7364860 26 18265897041281539297

> <PUBCHEM_SHAPE_MULTIPOLES>
272.34
4.67
2.58
1.24
2.3
1.67
0.03
-3.15
-0.07
-1.22
-0.06
-0.02
0.04
-0.15

> <PUBCHEM_SHAPE_SELFOVERLAP>
489.055

> <PUBCHEM_SHAPE_VOLUME>
175.2

> <RelativeEnergy>
5.02149

> <StereoisomerIndex>
1

> <TautomerIndex>
1

> <POSE_NUMBER>
1

> <LibDockScore>
74.1013

> <HotSpots>
7.81,2.67,0.94,A,73,11
7.61,-2.13,0.94,A,72,12
6.41,0.47,-4.25,A,40,13

> <-In-Situ Starting Energy>
-345.697736

> <-In-Situ Final Energy>
13.8052132

> <In-Situ Gradient>
0.0009590379474

$$$$
6454
  SciTegic09142310043D

 31 32  0  0  0  0            999 V2000
    7.8667   -0.3421    0.2059 O   0  0  0  1  0  0
    5.9569    3.6241    2.2410 O   0  0  0  1  0  0
    6.0527   -0.4908    4.4548 O   0  0  0  1  0  0
    6.8643   -0.3882    2.2403 N   0  0  0  1  0  0
    5.8429    1.4687    3.2153 N   0  0  0  1  0  0
    6.9355    1.7590    0.9770 C   0  0  2  1  0  0
    6.1669    2.0935   -0.3277 C   0  0  1  1  0  0
    6.9041    1.7546   -1.6462 C   0  0  0  1  0  0
    8.2162    2.5923    0.9872 C   0  0  0  1  0  0
    6.0473    0.7374   -2.4082 C   0  0  0  1  0  0
    4.8867    1.3388   -0.4503 C   0  0  0  1  0  0
    7.2633    0.2371    1.0994 C   0  0  0  1  0  0
    6.1406    2.2835    2.1966 C   0  0  0  1  0  0
    4.8245    0.5881   -1.5570 C   0  0  0  1  0  0
    9.0239    2.4777    2.2470 C   0  0  0  1  0  0
    6.2360    0.1849    3.2980 C   0  0  0  1  0  0
    9.0302    3.4029    3.2140 C   0  0  0  1  0  0
    5.8438    3.9676    3.1210 H   0  0
    6.2704    0.0227    5.2426 H   0  0
    5.9324    3.1592   -0.3405 H   0  0
    7.9064    1.3563   -1.4956 H   0  0
    7.0237    2.6591   -2.2434 H   0  0
    8.8493    2.3414    0.1408 H   0  0
    7.9205    3.6252    0.8253 H   0  0
    5.7907    1.0911   -3.4064 H   0  0
    6.5592   -0.2184   -2.5009 H   0  0
    4.1611    1.4533    0.3234 H   0  0
    4.0262   -0.0588   -1.8644 H   0  0
    9.7111    1.6592    2.2798 H   0  0
    8.3339    4.2162    3.2351 H   0  0
    9.7366    3.3714    4.0047 H   0  0
  1 12  2  0
  2 13  1  0
  3 16  1  0
  4 12  1  0
  4 16  2  0
  5 13  2  0
  5 16  1  0
  6  7  1  0
  6  9  1  0
  6 12  1  0
  6 13  1  0
  7  8  1  0
  7 11  1  0
  8 10  1  0
  9 15  1  0
 10 14  1  0
 11 14  2  0
 15 17  2  0
  2 18  1  0
  3 19  1  0
  7 20  1  0
  8 21  1  0
  8 22  1  0
  9 23  1  0
  9 24  1  0
 10 25  1  0
 10 26  1  0
 11 27  1  0
 14 28  1  0
 15 29  1  0
 17 30  1  0
 17 31  1  0
M  END
> <Name>
6454

> <Binding Energy>
-58.3383

> <Ligand Energy>
71.9795

> <Protein Energy>
-7801.1566

> <Complex Energy>
-7787.5154

> <Complex Entropy>
-31.4779

> <Protein Entropy>
-31.4717

> <Ligand Entropy>
-18.5233

> <Entropic Energy>
18.5172

> <AbsoluteEnergy>
44.561

> <ConfNumber>
25

> <Ionization pH>
7.8_P

> <IonizationIndex>
1

> <MOL_NUMBER>
262

> <NumberOfIonizations>
2

> <NumberOfStereoisomers>
2

> <NumberOfTautomers>
8

> <PUBCHEM_ATOM_DEF_STEREO_COUNT>
0

> <PUBCHEM_ATOM_UDEF_STEREO_COUNT>
1

> <PUBCHEM_BOND_DEF_STEREO_COUNT>
0

> <PUBCHEM_BOND_UDEF_STEREO_COUNT>
0

> <PUBCHEM_CACTVS_TAUTO_COUNT>
5

> <PUBCHEM_COMPONENT_COUNT>
1

> <PUBCHEM_COMPOUND_CID>
6454

> <PUBCHEM_CONFORMER_DIVERSEORDER>
1
6
12
3
7
10
11
14
2
4
9
5
13
8

> <PUBCHEM_CONFORMER_ID>
193600000001

> <PUBCHEM_CONFORMER_RMSD>
0.6

> <PUBCHEM_COORDINATE_TYPE>
2
5
10

> <PUBCHEM_EFFECTIVE_ROTOR_COUNT>
4.2

> <PUBCHEM_FEATURE_SELFOVERLAP>
40.636

> <PUBCHEM_HEAVY_ATOM_COUNT>
17

> <PUBCHEM_ISOTOPIC_ATOM_COUNT>
0

> <PUBCHEM_MMFF94_ENERGY>
50.2948

> <PUBCHEM_MMFF94_PARTIAL_CHARGES>
23
1 -0.57
10 0.14
11 -0.29
12 0.57
13 0.57
14 -0.29
15 -0.29
16 0.69
17 -0.3
2 -0.57
25 0.15
26 0.15
27 0.37
28 0.37
29 0.15
3 -0.57
30 0.15
31 0.15
4 -0.49
5 -0.49
6 0.12
7 0.14
9 0.14

> <PUBCHEM_PHARMACOPHORE_FEATURES>
8
1 1 acceptor
1 17 hydrophobe
1 2 acceptor
1 3 acceptor
1 4 donor
1 5 donor
5 7 8 10 11 14 rings
6 4 5 6 12 13 16 rings

> <PUBCHEM_SHAPE_FINGERPRINT>
11578080 2 18190439624189415796
12423570 1 15607158843108546413
13132413 78 18342177734838357345
13464514 151 18268720591410683793
14142880 1 17756705235452846380
14617773 55 18120109298762466428
14761567 1 17974037172914557556
14817 1 12295695949269146204
15852999 172 17539386035998725239
16945 1 18268136729202917261
20361792 2 18200865214955026263
21296965 67 18341890749354789088
21524375 3 17338993470584754321
22112679 90 18128276517930054833
23402539 116 18265048046902174454
23419403 2 18119776245429014188
2748010 2 18125975248741128593
3250762 1 17976262665937854763
3286 77 18335708294868255051
474 4 17981320411231484321
528886 8 17313944100242965895
6992083 37 17917441873828238401
7364860 26 18269829994421482249
74978 22 18271517689452482543
81228 2 17984712112175833416

> <PUBCHEM_SHAPE_MULTIPOLES>
322.28
4.31
2.78
1.38
1.91
2.64
0.32
-2.42
0.48
-2.36
-0.74
0.11
-0.06
-0.23

> <PUBCHEM_SHAPE_SELFOVERLAP>
689.204

> <PUBCHEM_SHAPE_VOLUME>
176.3

> <RelativeEnergy>
11.0099

> <StereoisomerIndex>
2

> <TautomerIndex>
7

> <POSE_NUMBER>
1

> <LibDockScore>
97.8479

> <HotSpots>
5.81,-0.73,4.54,P,96,3
7.81,2.67,0.94,A,73,9
4.81,0.47,-1.05,A,56,10

> <-In-Situ Starting Energy>
-231.396132

> <-In-Situ Final Energy>
-13.8093088

> <In-Situ Gradient>
0.0008612582137

$$$$
6463
  SciTegic09142310043D

 28 29  0  0  0  0            999 V2000
    6.3566    2.5230   -1.0864 O   0  0  0  1  0  0
    3.7838    2.4060   -0.8543 O   0  5  0  1  0  0
    3.7024    2.1604    1.2490 O   0  0  0  1  0  0
    5.9210    2.1436    0.1985 C   0  0  0  1  0  0
    6.2703    0.7178    0.4863 C   0  0  0  1  0  0
    6.7757    2.8635    1.2515 C   0  0  0  1  0  0
    4.3625    2.2482    0.2151 C   0  0  0  1  0  0
    7.1018   -0.0149   -0.3510 C   0  0  0  1  0  0
    8.1561    2.6291    1.2165 C   0  0  0  1  0  0
    6.0514    0.2837    1.7866 C   0  0  0  1  0  0
    6.2772    3.5052    2.3868 C   0  0  0  1  0  0
    7.7784   -1.1093    0.1602 C   0  0  0  1  0  0
    8.9722    2.8976    2.3081 C   0  0  0  1  0  0
    6.7656   -0.7604    2.2973 C   0  0  0  1  0  0
    7.1264    3.9127    3.4066 C   0  0  0  1  0  0
    7.6113   -1.4838    1.4724 C   0  0  0  1  0  0
    8.4619    3.5737    3.3942 C   0  0  0  1  0  0
    5.5453    2.7036   -1.5696 H   0  0
    7.3078    0.3326   -1.3526 H   0  0
    8.5897    2.1440    0.3545 H   0  0
    5.4175    0.8433    2.4588 H   0  0
    5.2238    3.6532    2.5361 H   0  0
    8.5155   -1.6489   -0.4068 H   0  0
   10.0160    2.6373    2.3044 H   0  0
    6.6433   -0.9515    3.3505 H   0  0
    6.7636    4.4783    4.2402 H   0  0
    8.1740   -2.3333    1.8239 H   0  0
    9.1086    3.8769    4.2034 H   0  0
  1  4  1  0
  2  7  1  0
  3  7  2  0
  4  5  1  0
  4  6  1  0
  4  7  1  0
  5  8  2  0
  5 10  1  0
  6  9  2  0
  6 11  1  0
  8 12  1  0
  9 13  1  0
 10 14  2  0
 11 15  2  0
 12 16  2  0
 13 17  2  0
 14 16  1  0
 15 17  1  0
  1 18  1  0
  8 19  1  0
  9 20  1  0
 10 21  1  0
 11 22  1  0
 12 23  1  0
 13 24  1  0
 14 25  1  0
 15 26  1  0
 16 27  1  0
 17 28  1  0
M  CHG  1   2  -1
M  END
> <Name>
6463

> <Binding Energy>
-90.1918

> <Ligand Energy>
17.2448

> <Protein Energy>
-7801.1566

> <Complex Energy>
-7874.1037

> <Complex Entropy>
-31.4777

> <Protein Entropy>
-31.4717

> <Ligand Entropy>
-18.4729

> <Entropic Energy>
18.4669

> <AbsoluteEnergy>
56.4783

> <ConfNumber>
38

> <Ionization pH>
7.5

> <IonizationIndex>
1

> <MOL_NUMBER>
269

> <NumberOfIonizations>
1

> <NumberOfStereoisomers>
1

> <NumberOfTautomers>
1

> <PUBCHEM_ATOM_DEF_STEREO_COUNT>
0

> <PUBCHEM_ATOM_UDEF_STEREO_COUNT>
0

> <PUBCHEM_BOND_DEF_STEREO_COUNT>
0

> <PUBCHEM_BOND_UDEF_STEREO_COUNT>
0

> <PUBCHEM_CACTVS_TAUTO_COUNT>
1

> <PUBCHEM_COMPONENT_COUNT>
1

> <PUBCHEM_COMPOUND_CID>
6463

> <PUBCHEM_CONFORMER_DIVERSEORDER>
1
5
6
4
2
3
7

> <PUBCHEM_CONFORMER_ID>
0000193F00000001

> <PUBCHEM_CONFORMER_RMSD>
0.6

> <PUBCHEM_COORDINATE_TYPE>
2
5
10

> <PUBCHEM_EFFECTIVE_ROTOR_COUNT>
3

> <PUBCHEM_FEATURE_SELFOVERLAP>
35.59

> <PUBCHEM_HEAVY_ATOM_COUNT>
17

> <PUBCHEM_ISOTOPIC_ATOM_COUNT>
0

> <PUBCHEM_MMFF94_ENERGY>
55.9532

> <PUBCHEM_MMFF94_PARTIAL_CHARGES>
29
1 -0.68
10 -0.15
11 -0.15
12 -0.15
13 -0.15
14 -0.15
15 -0.15
16 -0.15
17 -0.15
18 0.15
19 0.15
2 -0.65
20 0.15
21 0.15
22 0.4
23 0.15
24 0.15
25 0.15
26 0.15
27 0.15
28 0.15
29 0.5
3 -0.57
4 0.63
5 -0.14
6 -0.14
7 0.66
8 -0.15
9 -0.15

> <PUBCHEM_PHARMACOPHORE_FEATURES>
7
1 1 acceptor
1 1 donor
1 2 acceptor
1 3 acceptor
3 2 3 7 anion
6 5 8 10 12 14 16 rings
6 6 9 11 13 15 17 rings

> <PUBCHEM_SHAPE_FINGERPRINT>
10130415 120 18410298020892263271
10618630 7 18336546027886152254
11578080 2 17968636290263778220
12382932 28 18343017753153006115
12553582 1 18409166619037713211
12714826 92 18187359887818954431
13083527 12 17338399686944843183
13538477 17 18117839898051547748
14787075 74 18115865377448165608
14817 1 11302577559027145900
15375462 175 18198913504480049094
15375462 189 18187089450755376139
15848700 24 18201711847556338231
16752209 62 18192141595184499685
16945 1 18265609896821234973
17804303 29 18411140255700434035
17844478 74 17346312640512429666
18186145 218 13190341236134498814
19049666 15 17128464103751560982
19422 9 18041005028827710983
200 152 17167866318609034250
20361792 2 18408877460311483391
20510252 161 18198903608906878784
20559304 39 18198346362817810339
20600515 1 18272661112156317468
20645477 70 18050843618420200927
21296965 67 18411136939505354305
21501502 16 18056482987709463095
21731516 1 18260540164838787099
22112679 90 18267047005790096404
2255824 54 18045223992461328607
23184049 29 18198338670642425847
232386 152 18411421738855648879
23419403 2 16618072176227234343
23557571 272 18343022160480086954
23559900 14 18200880552736940542
2748010 2 18268972306431964652
465052 167 18188506773617182523
5902787 121 18411135878564296043
7364860 26 18054512675251085597
74978 22 18338515378081853967
77492 1 17895767196561851350
81228 2 18128827330305865240

> <PUBCHEM_SHAPE_MULTIPOLES>
332.24
5.68
2.39
1.27
0.55
1.42
-0.03
-3.95
-0.35
0.54
-0.21
-0.76
0.2
-0.31

> <PUBCHEM_SHAPE_SELFOVERLAP>
723.801

> <PUBCHEM_SHAPE_VOLUME>
179.4

> <RelativeEnergy>
14.2537

> <StereoisomerIndex>
1

> <TautomerIndex>
1

> <POSE_NUMBER>
1

> <LibDockScore>
86.5658

> <HotSpots>
9.21,2.67,2.54,A,84,9
7.81,4.27,4.14,A,90,15
7.61,-2.13,0.94,A,72,16

> <-In-Situ Starting Energy>
-1889.05624

> <-In-Situ Final Energy>
56.3785018

> <In-Situ Gradient>
0.0009184366849

$$$$
6464
  SciTegic09142310043D

 29 29  0  0  0  0            999 V2000
    5.6619    2.5525    2.1573 O   0  0  0  1  0  0
    7.2996    0.6216   -1.9041 O   0  0  0  1  0  0
    3.3478    2.9157   -1.6128 O   0  0  0  1  0  0
    4.3962    2.2367    0.3271 N   0  0  0  1  0  0
    5.3582    1.7316   -1.7188 N   0  0  0  1  0  0
    6.6406    1.2600    0.3464 C   0  0  2  1  0  0
    6.5554   -0.1744    0.9634 C   0  0  0  1  0  0
    7.9591    2.0515    0.5203 C   0  0  0  1  0  0
    5.5242    2.0817    1.0331 C   0  0  0  1  0  0
    6.4553    1.1586   -1.1997 C   0  0  0  1  0  0
    7.6054   -1.1796    0.4610 C   0  0  0  1  0  0
    6.4579   -0.2521    2.5022 C   0  0  0  1  0  0
    8.6367    1.9706    1.8522 C   0  0  0  1  0  0
    4.3618    2.2809   -1.0084 C   0  0  0  1  0  0
    8.7342    2.9664    2.7459 C   0  0  0  1  0  0
    3.6703    3.3555   -2.4026 H   0  0
    5.3457    1.7906   -2.7189 H   0  0
    5.6003   -0.5622    0.6125 H   0  0
    8.6902    1.7038   -0.2088 H   0  0
    7.7998    3.1016    0.2661 H   0  0
    8.1212   -1.6760    1.2836 H   0  0
    8.3616   -0.7142   -0.1678 H   0  0
    7.1292   -1.9700   -0.1185 H   0  0
    5.7733    0.4480    2.9700 H   0  0
    7.4306   -0.1566    2.9691 H   0  0
    6.0549   -1.2075    2.7923 H   0  0
    9.1665    1.0545    1.9880 H   0  0
    8.1480    3.8585    2.6481 H   0  0
    9.4000    2.9114    3.5830 H   0  0
  1  9  2  0
  2 10  2  0
  3 14  1  0
  4  9  1  0
  4 14  2  0
  5 10  1  0
  5 14  1  0
  6  7  1  0
  6  8  1  0
  6  9  1  0
  6 10  1  0
  7 11  1  0
  7 12  1  0
  8 13  1  0
 13 15  2  0
  3 16  1  0
  5 17  1  0
  7 18  1  0
  8 19  1  0
  8 20  1  0
 11 21  1  0
 11 22  1  0
 11 23  1  0
 12 24  1  0
 12 25  1  0
 12 26  1  0
 13 27  1  0
 15 28  1  0
 15 29  1  0
M  END
> <Name>
6464

> <Binding Energy>
-51.6428

> <Ligand Energy>
47.6059

> <Protein Energy>
-7801.1566

> <Complex Energy>
-7805.1935

> <Complex Entropy>
-31.4772

> <Protein Entropy>
-31.4717

> <Ligand Entropy>
-18.2494

> <Entropic Energy>
18.2439

> <AbsoluteEnergy>
34.6467

> <ConfNumber>
22

> <Ionization pH>
7.99_P

> <IonizationIndex>
1

> <MOL_NUMBER>
275

> <NumberOfIonizations>
2

> <NumberOfStereoisomers>
2

> <NumberOfTautomers>
8

> <PUBCHEM_ATOM_DEF_STEREO_COUNT>
0

> <PUBCHEM_ATOM_UDEF_STEREO_COUNT>
0

> <PUBCHEM_BOND_DEF_STEREO_COUNT>
0

> <PUBCHEM_BOND_UDEF_STEREO_COUNT>
0

> <PUBCHEM_CACTVS_TAUTO_COUNT>
5

> <PUBCHEM_COMPONENT_COUNT>
1

> <PUBCHEM_COMPOUND_CID>
6464

> <PUBCHEM_CONFORMER_DIVERSEORDER>
1
4
5
3
7
6
9
8
2

> <PUBCHEM_CONFORMER_ID>
194000000001

> <PUBCHEM_CONFORMER_RMSD>
0.6

> <PUBCHEM_COORDINATE_TYPE>
2
5
10

> <PUBCHEM_EFFECTIVE_ROTOR_COUNT>
3.6

> <PUBCHEM_FEATURE_SELFOVERLAP>
40.636

> <PUBCHEM_HEAVY_ATOM_COUNT>
15

> <PUBCHEM_ISOTOPIC_ATOM_COUNT>
0

> <PUBCHEM_MMFF94_ENERGY>
46.82

> <PUBCHEM_MMFF94_PARTIAL_CHARGES>
17
1 -0.57
10 0.57
13 -0.29
14 0.69
15 -0.3
2 -0.57
25 0.37
26 0.37
27 0.15
28 0.15
29 0.15
3 -0.57
4 -0.49
5 -0.49
6 0.12
8 0.14
9 0.57

> <PUBCHEM_PHARMACOPHORE_FEATURES>
8
1 1 acceptor
1 15 hydrophobe
1 2 acceptor
1 3 acceptor
1 4 donor
1 5 donor
3 7 11 12 hydrophobe
6 4 5 6 9 10 14 rings

> <PUBCHEM_SHAPE_FINGERPRINT>
1 1 10738376421539500457
10702982 57 17907855102632559484
12326174 3 17266394921062229941
12423570 1 10294866179967617873
13024252 1 15358271355220103844
137420 1 14930107070446403225
14128692 85 18262227940872811783
141345 1 11193150824741055083
14617773 55 18336839644761340780
14817 1 13454599372682891315
15906896 17 18192451696207889625
16945 1 18267284478884505077
18534176 82 17417525787876526104
22112679 90 18198086804816579073
23419403 2 17761166224261508052
528886 8 17240748558972958887
68250623 7 18059009617726834681
81228 2 18059862722843523729

> <PUBCHEM_SHAPE_MULTIPOLES>
281.12
3.23
2.39
1.75
1.61
1.25
-0.05
-2.58
-0.2
-1.48
0.28
-0.14
0.32
-0.54

> <PUBCHEM_SHAPE_SELFOVERLAP>
580.881

> <PUBCHEM_SHAPE_VOLUME>
158.8

> <RelativeEnergy>
11.4569

> <StereoisomerIndex>
2

> <TautomerIndex>
5

> <POSE_NUMBER>
1

> <LibDockScore>
88.8769

> <HotSpots>
3.21,3.27,-1.25,P,79,3
7.81,2.67,0.94,A,73,8
7.01,-0.53,1.54,A,78,12

> <-In-Situ Starting Energy>
-1196.05825

> <-In-Situ Final Energy>
13.1761826

> <In-Situ Gradient>
0.0008603536229

$$$$
6465
  SciTegic09142310043D

 27 27  0  0  0  0            999 V2000
    7.3029    0.9775    2.9553 O   0  0  0  1  0  0
    4.3044    0.8343   -0.5240 O   0  0  0  1  0  0
    5.9790   -0.6934   -0.5087 N   0  0  0  1  0  0
    6.2329    1.3478    0.8556 C   0  0  0  1  0  0
    5.2843    2.2288    1.7064 C   0  0  0  1  0  0
    7.1786    2.1705   -0.0566 C   0  0  0  1  0  0
    7.0095    0.5193    1.8925 C   0  0  0  1  0  0
    5.4057    0.4662   -0.1243 C   0  0  0  1  0  0
    7.2684   -0.9302    1.5694 C   0  0  0  1  0  0
    7.2315   -1.1634    0.0689 C   0  0  0  1  0  0
    5.9485    3.4849    2.3214 C   0  0  0  1  0  0
    8.4777    2.6231    0.6032 C   0  0  0  1  0  0
    5.5405   -1.2247   -1.2416 H   0  0
    4.4318    2.5098    1.0990 H   0  0
    4.8363    1.6431    2.5115 H   0  0
    7.4844    1.5900   -0.9298 H   0  0
    6.6450    3.0306   -0.4638 H   0  0
    8.2125   -1.2432    2.0046 H   0  0
    6.4590   -1.4737    2.0333 H   0  0
    7.2792   -2.2311   -0.1239 H   0  0
    8.0517   -0.6649   -0.4500 H   0  0
    6.3337    4.1536    1.5572 H   0  0
    6.7904    3.2795    2.9644 H   0  0
    5.2482    4.0513    2.9254 H   0  0
    9.0484    1.7700    0.9573 H   0  0
    8.3232    3.2606    1.4661 H   0  0
    9.0808    3.1595   -0.1234 H   0  0
  1  7  2  0
  2  8  2  0
  3  8  1  0
  3 10  1  0
  4  5  1  0
  4  6  1  0
  4  7  1  0
  4  8  1  0
  5 11  1  0
  6 12  1  0
  7  9  1  0
  9 10  1  0
  3 13  1  0
  5 14  1  0
  5 15  1  0
  6 16  1  0
  6 17  1  0
  9 18  1  0
  9 19  1  0
 10 20  1  0
 10 21  1  0
 11 22  1  0
 11 23  1  0
 11 24  1  0
 12 25  1  0
 12 26  1  0
 12 27  1  0
M  END
> <Name>
6465

> <Binding Energy>
-91.0867

> <Ligand Energy>
19.1448

> <Protein Energy>
-7801.1566

> <Complex Energy>
-7873.0985

> <Complex Entropy>
-31.4761

> <Protein Entropy>
-31.4717

> <Ligand Entropy>
-17.6261

> <Entropic Energy>
17.6217

> <AbsoluteEnergy>
27.833

> <ConfNumber>
16

> <IonizationIndex>
1

> <MOL_NUMBER>
284

> <NumberOfIonizations>
1

> <NumberOfStereoisomers>
1

> <NumberOfTautomers>
1

> <PUBCHEM_ATOM_DEF_STEREO_COUNT>
0

> <PUBCHEM_ATOM_UDEF_STEREO_COUNT>
0

> <PUBCHEM_BOND_DEF_STEREO_COUNT>
0

> <PUBCHEM_BOND_UDEF_STEREO_COUNT>
0

> <PUBCHEM_CACTVS_TAUTO_COUNT>
4

> <PUBCHEM_COMPONENT_COUNT>
1

> <PUBCHEM_COMPOUND_CID>
6465

> <PUBCHEM_CONFORMER_DIVERSEORDER>
1
6
5
3
2
4

> <PUBCHEM_CONFORMER_ID>
194100000001

> <PUBCHEM_CONFORMER_RMSD>
0.6

> <PUBCHEM_COORDINATE_TYPE>
2
5
10

> <PUBCHEM_EFFECTIVE_ROTOR_COUNT>
2.8

> <PUBCHEM_FEATURE_SELFOVERLAP>
30.446

> <PUBCHEM_HEAVY_ATOM_COUNT>
12

> <PUBCHEM_ISOTOPIC_ATOM_COUNT>
0

> <PUBCHEM_MMFF94_ENERGY>
25.8842

> <PUBCHEM_MMFF94_PARTIAL_CHARGES>
9
1 -0.57
10 0.3
2 -0.57
21 0.37
3 -0.73
4 0.12
7 0.45
8 0.57
9 0.06

> <PUBCHEM_PHARMACOPHORE_FEATURES>
6
1 1 acceptor
1 11 hydrophobe
1 12 hydrophobe
1 2 acceptor
1 3 donor
6 3 4 7 8 9 10 rings

> <PUBCHEM_SHAPE_FINGERPRINT>
10702982 57 17624130499504101325
12423570 1 16590878891197565638
13024252 1 12613913465032634190
137420 1 15254438265971001941
14817 1 9093456921314038009
16945 1 18334847320906768823
21922407 69 17560789997039293386
241688 4 17905309746288960098
2748010 2 18116154565706066054
5084963 1 17406273231158732816
528886 8 17825926162088773229
68250623 7 17192134773221269380

> <PUBCHEM_SHAPE_MULTIPOLES>
230.23
2.5
2
1.55
0.46
0.53
0.09
-0.68
-0.59
-0.03
0.47
-0.68
0.15
-0.66

> <PUBCHEM_SHAPE_SELFOVERLAP>
465.233

> <PUBCHEM_SHAPE_VOLUME>
133.5

> <RelativeEnergy>
15.6466

> <StereoisomerIndex>
1

> <TautomerIndex>
1

> <POSE_NUMBER>
1

> <LibDockScore>
71.7757

> <HotSpots>
7.81,2.67,0.94,A,73,6
7.01,-0.53,1.54,A,78,10
6.61,4.27,3.15,A,86,11

> <-In-Situ Starting Energy>
-668.076016

> <-In-Situ Final Energy>
28.9722964

> <In-Situ Gradient>
0.0009488774246

$$$$
6473
  SciTegic09142310043D

 31 31  0  0  0  0            999 V2000
    5.8438    3.0889    1.7298 O   0  0  0  1  0  0
    7.6583   -1.2387    0.5015 O   0  0  0  1  0  0
    5.8290   -0.3659    4.7335 O   0  0  0  1  0  0
    5.8388    1.3486    3.1463 N   0  0  0  1  0  0
    6.6500   -0.7505    2.5881 N   0  0  0  1  0  0
    6.7645    1.0383    0.8647 C   0  0  1  1  0  0
    5.8421    0.9965   -0.3759 C   0  0  0  1  0  0
    8.1275    1.6746    0.5443 C   0  0  0  1  0  0
    6.4731    0.2880   -1.5886 C   0  0  0  1  0  0
    6.1019    1.9180    1.9535 C   0  0  0  1  0  0
    7.0239   -0.4011    1.3552 C   0  0  0  1  0  0
    5.7630    0.5945   -2.8962 C   0  0  0  1  0  0
    8.0630    2.9642   -0.2811 C   0  0  0  1  0  0
    6.0959    0.0744    3.4910 C   0  0  0  1  0  0
    6.6404    0.4371   -4.1423 C   0  0  0  1  0  0
    7.7404   -2.1296    0.8259 H   0  0
    6.2255    0.1733    5.4298 H   0  0
    4.9011    0.5061   -0.1359 H   0  0
    5.5757    2.0167   -0.6571 H   0  0
    8.7013    1.8471    1.4569 H   0  0
    8.7065    0.9643   -0.0332 H   0  0
    6.4325   -0.7806   -1.4158 H   0  0
    7.5217    0.5513   -1.7028 H   0  0
    5.4125    1.6190   -2.8549 H   0  0
    4.8915   -0.0538   -2.9676 H   0  0
    7.5549    3.7749    0.2383 H   0  0
    7.5782    2.8230   -1.2464 H   0  0
    9.0758    3.2826   -0.4860 H   0  0
    6.8467   -0.6068   -4.3494 H   0  0
    7.5895    0.9615   -4.0328 H   0  0
    6.1398    0.8335   -5.0220 H   0  0
  1 10  2  0
  2 11  1  0
  3 14  1  0
  4 10  1  0
  4 14  2  0
  5 11  2  0
  5 14  1  0
  6  7  1  0
  6  8  1  0
  6 10  1  0
  6 11  1  0
  7  9  1  0
  8 13  1  0
  9 12  1  0
 12 15  1  0
  2 16  1  0
  3 17  1  0
  7 18  1  0
  7 19  1  0
  8 20  1  0
  8 21  1  0
  9 22  1  0
  9 23  1  0
 12 24  1  0
 12 25  1  0
 13 26  1  0
 13 27  1  0
 13 28  1  0
 15 29  1  0
 15 30  1  0
 15 31  1  0
M  END
> <Name>
6473

> <Binding Energy>
-34.1698

> <Ligand Energy>
31.8563

> <Protein Energy>
-7801.1566

> <Complex Energy>
-7803.4702

> <Complex Entropy>
-31.4773

> <Protein Entropy>
-31.4717

> <Ligand Entropy>
-18.3894

> <Entropic Energy>
18.3838

> <AbsoluteEnergy>
22.3893

> <ConfNumber>
24

> <Ionization pH>
7.98_P

> <IonizationIndex>
1

> <MOL_NUMBER>
291

> <NumberOfIonizations>
2

> <NumberOfStereoisomers>
2

> <NumberOfTautomers>
8

> <PUBCHEM_ATOM_DEF_STEREO_COUNT>
0

> <PUBCHEM_ATOM_UDEF_STEREO_COUNT>
0

> <PUBCHEM_BOND_DEF_STEREO_COUNT>
0

> <PUBCHEM_BOND_UDEF_STEREO_COUNT>
0

> <PUBCHEM_CACTVS_TAUTO_COUNT>
5

> <PUBCHEM_COMPONENT_COUNT>
1

> <PUBCHEM_COMPOUND_CID>
6473

> <PUBCHEM_CONFORMER_DIVERSEORDER>
1
11
14
9
3
5
8
13
10
12
7
2
4
6

> <PUBCHEM_CONFORMER_ID>
194900000001

> <PUBCHEM_CONFORMER_RMSD>
0.6

> <PUBCHEM_COORDINATE_TYPE>
2
5
10

> <PUBCHEM_EFFECTIVE_ROTOR_COUNT>
4.6

> <PUBCHEM_FEATURE_SELFOVERLAP>
40.636

> <PUBCHEM_HEAVY_ATOM_COUNT>
15

> <PUBCHEM_ISOTOPIC_ATOM_COUNT>
0

> <PUBCHEM_MMFF94_ENERGY>
33.7005

> <PUBCHEM_MMFF94_PARTIAL_CHARGES>
11
1 -0.57
10 0.57
11 0.57
14 0.69
2 -0.57
27 0.37
28 0.37
3 -0.57
4 -0.49
5 -0.49
6 0.12

> <PUBCHEM_PHARMACOPHORE_FEATURES>
8
1 1 acceptor
1 13 hydrophobe
1 15 hydrophobe
1 2 acceptor
1 3 acceptor
1 4 donor
1 5 donor
6 4 5 6 10 11 14 rings

> <PUBCHEM_SHAPE_FINGERPRINT>
10610426 29 17240474776151014270
10702982 57 17545040867213542748
10922049 32 17539989676288238469
11471102 22 17632294553797770379
11578080 2 16155083106721565548
12423570 1 12596980651026117076
12592029 89 18118129297311894072
14128692 85 16805608027439413879
14817 1 12586114808784415500
16945 1 17489293166679140190
17844478 74 18198044916295810450
18186145 218 9006775474639327794
19010151 120 18261118430703251226
20511035 2 17985541388925130175
20559304 39 17417269709500197435
20645477 70 17896876750482938227
21524375 3 17620206755080418525
22344851 341 17835531787795339620
230 275 15769509706767690019
23419403 2 18198032864291128081
2748010 2 16913117037943419406
430814 3 17762337320172496877
568465 68 18059851732064677531
7364860 26 18189620625533682265
81228 2 17907872699409275741
81539 233 17680715022955487781

> <PUBCHEM_SHAPE_MULTIPOLES>
281.12
4.85
2.23
1.55
6.05
1.61
0.13
-3.67
-1.45
-1.25
0.14
-0.41
-0.11
-0.05

> <PUBCHEM_SHAPE_SELFOVERLAP>
569.341

> <PUBCHEM_SHAPE_VOLUME>
161.9

> <RelativeEnergy>
7.33865

> <StereoisomerIndex>
1

> <TautomerIndex>
7

> <POSE_NUMBER>
1

> <LibDockScore>
89.3177

> <HotSpots>
7.81,2.67,0.94,A,73,8
7.21,1.27,-2.85,A,46,12
6.21,0.27,3.35,A,87,14

> <-In-Situ Starting Energy>
-33.811239

> <-In-Situ Final Energy>
26.4762321

> <In-Situ Gradient>
0.0009055810157

$$$$
6489
  SciTegic09142310043D

 30 29  0  0  0  0            999 V2000
    9.1505    9.7865   -2.7960 Br  0  0  0  1  0  0
    6.5228   11.2657   -4.3570 O   0  0  0  1  0  0
    6.6616   13.5912   -3.2969 O   0  0  0  1  0  0
    6.5737   11.8594    0.5514 O   0  0  0  1  0  0
    6.9049   11.5746   -2.1285 N   0  0  0  1  0  0
    6.8320   13.6596   -0.9892 N   0  0  0  1  0  0
    7.3416    9.3471   -3.1444 C   0  0  0  1  0  0
    6.5488    8.5588   -2.0739 C   0  0  0  1  0  0
    7.4084    8.4473   -4.4228 C   0  0  0  1  0  0
    6.8405   10.8044   -3.2712 C   0  0  0  1  0  0
    6.4259    9.1182   -0.6491 C   0  0  0  1  0  0
    8.6799    8.3348   -5.2973 C   0  0  0  1  0  0
    6.8647   12.9475   -2.1364 C   0  0  0  1  0  0
    6.7711   13.1657    0.2596 C   0  0  0  1  0  0
    6.8275   14.1477    1.4452 C   0  0  0  1  0  0
    6.3929   13.0019   -4.0050 H   0  0
    7.0884   11.5369    1.2896 H   0  0
    5.5544    8.4025   -2.4517 H   0  0
    6.9093    7.5382   -2.0519 H   0  0
    6.4958    8.5601   -4.9967 H   0  0
    7.4105    7.4248   -4.0732 H   0  0
    5.6956    9.9243   -0.5999 H   0  0
    7.3806    9.4840   -0.2778 H   0  0
    6.0750    8.3474    0.0378 H   0  0
    9.4601    7.7806   -4.7761 H   0  0
    9.0886    9.3068   -5.5451 H   0  0
    8.5037    7.7481   -6.1929 H   0  0
    7.3287   13.6942    2.2987 H   0  0
    5.8161   14.4987    1.6420 H   0  0
    7.3829   15.0593    1.3110 H   0  0
  1  7  1  0
  2 10  2  0
  3 13  1  0
  4 14  1  0
  5 10  1  0
  5 13  2  0
  6 13  1  0
  6 14  2  0
  7  8  1  0
  7  9  1  0
  7 10  1  0
  8 11  1  0
  9 12  1  0
 14 15  1  0
  3 16  1  0
  4 17  1  0
  8 18  1  0
  8 19  1  0
  9 20  1  0
  9 21  1  0
 11 22  1  0
 11 23  1  0
 11 24  1  0
 12 25  1  0
 12 26  1  0
 12 27  1  0
 15 28  1  0
 15 29  1  0
 15 30  1  0
M  END
> <Name>
6489

> <Binding Energy>
-0.5366

> <Ligand Energy>
50.3015

> <Protein Energy>
-7801.1566

> <Complex Energy>
-7751.3917

> <Complex Entropy>
-31.4804

> <Protein Entropy>
-31.4717

> <Ligand Entropy>
-18.8503

> <Entropic Energy>
18.8417

> <AbsoluteEnergy>
54.382

> <ConfNumber>
8

> <Ionization pH>
7.5

> <IonizationIndex>
1

> <MOL_NUMBER>
305

> <NumberOfIonizations>
1

> <NumberOfStereoisomers>
1

> <NumberOfTautomers>
8

> <PUBCHEM_ATOM_DEF_STEREO_COUNT>
0

> <PUBCHEM_ATOM_UDEF_STEREO_COUNT>
0

> <PUBCHEM_BOND_DEF_STEREO_COUNT>
0

> <PUBCHEM_BOND_UDEF_STEREO_COUNT>
0

> <PUBCHEM_CACTVS_TAUTO_COUNT>
8

> <PUBCHEM_COMPONENT_COUNT>
1

> <PUBCHEM_COMPOUND_CID>
6489

> <PUBCHEM_CONFORMER_DIVERSEORDER>
1
26
19
27
31
7
30
29
32
34
28
10
8
22
21
16
24
12
6
11
25
17
23
33
15
9
20
14
4
18
5
13
3
2

> <PUBCHEM_CONFORMER_ID>
195900000001

> <PUBCHEM_CONFORMER_RMSD>
0.8

> <PUBCHEM_COORDINATE_TYPE>
2
5
10

> <PUBCHEM_EFFECTIVE_ROTOR_COUNT>
7

> <PUBCHEM_FEATURE_SELFOVERLAP>
40.653

> <PUBCHEM_HEAVY_ATOM_COUNT>
15

> <PUBCHEM_ISOTOPIC_ATOM_COUNT>
0

> <PUBCHEM_MMFF94_ENERGY>
31.3932

> <PUBCHEM_MMFF94_PARTIAL_CHARGES>
13
1 -0.23
10 0.57
13 0.69
14 0.57
15 0.06
2 -0.57
26 0.37
27 0.37
3 -0.57
4 -0.57
5 -0.49
6 -0.49
7 0.29

> <PUBCHEM_PHARMACOPHORE_FEATURES>
8
1 1 hydrophobe
1 11 hydrophobe
1 12 hydrophobe
1 2 acceptor
1 3 acceptor
1 4 acceptor
1 5 donor
1 6 donor

> <PUBCHEM_SHAPE_FINGERPRINT>
10366900 7 18335703862013430969
12932764 1 18341038666561298204
13296908 3 17385723573963863147
13533116 47 18337952290942732475
13583140 156 18412538817374113685
13675066 3 18040997332894792809
13911882 115 17823159923972409770
14252887 29 17240774972821310656
14289901 80 18411974793547090681
16945 1 18341033169493671918
18186145 218 18130786767674784529
19784866 140 18198636449641923246
20233049 118 14692578688961420986
20539784 86 18411411834845498784
20559304 39 18201153261405597746
20645477 70 18189043227379174007
20715346 28 17895458259379497543
21503847 285 17917722300437608328
21730867 7 18335135397374749010
22485316 2 14273450397055823981
2255824 54 18273209829062392692
23380061 81 17275113841911674737
23402539 116 11527664129088315249
23557571 272 14779540154476692486
23558518 356 17694207173574519550
23559900 14 17023174973106993882
23598291 2 17631721776732277308
31174 14 18410851057792172624
474 4 18127964415668410560
9999458 23 18340209686845382404

> <PUBCHEM_SHAPE_MULTIPOLES>
287.07
8.26
1.79
1.49
10.08
0.18
-0.21
0.02
1.35
-2.73
0.71
0.22
-0.1
0.23

> <PUBCHEM_SHAPE_SELFOVERLAP>
538.806

> <PUBCHEM_SHAPE_VOLUME>
181

> <RelativeEnergy>
13.1706

> <StereoisomerIndex>
1

> <TautomerIndex>
7

> <POSE_NUMBER>
1

> <LibDockScore>
104.5652

> <HotSpots>
7.21,9.27,-3.25,A,45,9
5.81,9.67,0.14,A,68,11
7.21,14.67,2.35,A,81,15

> <-In-Situ Starting Energy>
-1996.45087

> <-In-Situ Final Energy>
-37.698713

> <In-Situ Gradient>
0.0009640645565

$$$$
6584
  SciTegic09142310043D

 11 10  0  0  0  0            999 V2000
    6.8944   12.4893   -1.8833 O   0  0  0  1  0  0
    7.3598   10.5281   -2.8389 O   0  0  0  1  0  0
    6.3681   10.4280   -0.6510 C   0  0  0  1  0  0
    6.9249   11.1516   -1.8825 C   0  0  0  1  0  0
    6.7152   13.2557   -0.6816 C   0  0  0  1  0  0
    5.3105   10.6545   -0.5309 H   0  0
    6.9072   10.7067    0.2504 H   0  0
    6.4737    9.3522   -0.7904 H   0  0
    7.3358   12.9050    0.1419 H   0  0
    5.6977   13.2094   -0.3367 H   0  0
    6.9251   14.2992   -0.9087 H   0  0
  1  4  1  0
  1  5  1  0
  2  4  2  0
  3  4  1  0
  3  6  1  0
  3  7  1  0
  3  8  1  0
  5  9  1  0
  5 10  1  0
  5 11  1  0
M  END
> <Name>
6584

> <Binding Energy>
-4.0872

> <Ligand Energy>
-11.2198

> <Protein Energy>
-7801.1566

> <Complex Energy>
-7816.4637

> <Complex Entropy>
-31.474

> <Protein Entropy>
-31.4717

> <Ligand Entropy>
-15.4216

> <Entropic Energy>
15.4193

> <AbsoluteEnergy>
11.129

> <ConfNumber>
2

> <IonizationIndex>
1

> <MOL_NUMBER>
308

> <NumberOfIonizations>
1

> <NumberOfStereoisomers>
1

> <NumberOfTautomers>
1

> <PUBCHEM_ATOM_DEF_STEREO_COUNT>
0

> <PUBCHEM_ATOM_UDEF_STEREO_COUNT>
0

> <PUBCHEM_BOND_DEF_STEREO_COUNT>
0

> <PUBCHEM_BOND_UDEF_STEREO_COUNT>
0

> <PUBCHEM_CACTVS_TAUTO_COUNT>
1

> <PUBCHEM_COMPONENT_COUNT>
1

> <PUBCHEM_COMPOUND_CID>
6584

> <PUBCHEM_CONFORMER_DIVERSEORDER>
1

> <PUBCHEM_CONFORMER_ID>
000019B800000001

> <PUBCHEM_CONFORMER_RMSD>
0.4

> <PUBCHEM_COORDINATE_TYPE>
2
5
10

> <PUBCHEM_EFFECTIVE_ROTOR_COUNT>
1

> <PUBCHEM_FEATURE_SELFOVERLAP>
5.074

> <PUBCHEM_HEAVY_ATOM_COUNT>
5

> <PUBCHEM_ISOTOPIC_ATOM_COUNT>
0

> <PUBCHEM_MMFF94_ENERGY>
4.4821

> <PUBCHEM_MMFF94_PARTIAL_CHARGES>
5
1 -0.43
2 -0.57
3 0.06
4 0.66
5 0.28

> <PUBCHEM_PHARMACOPHORE_FEATURES>
1
1 2 acceptor

> <PUBCHEM_SHAPE_FINGERPRINT>
139733 1 9221216440087595075
16714656 1 18264496250646115372
20096714 4 18411699919587064560
21015797 1 8862357830729484008
21040471 1 18338516451364488576
5460574 1 9295298239290302657
5943 1 11388330592722771550

> <PUBCHEM_SHAPE_MULTIPOLES>
91.16
2.2
1.06
0.58
0.47
0.31
0
-0.5
0
-0.18
0
-0.01
-0.01
0

> <PUBCHEM_SHAPE_SELFOVERLAP>
159.399

> <PUBCHEM_SHAPE_VOLUME>
61.3

> <RelativeEnergy>
6.07976

> <StereoisomerIndex>
1

> <TautomerIndex>
1

> <POSE_NUMBER>
1

> <LibDockScore>
42.9333

> <HotSpots>
6.41,11.47,-0.06,A,67,3
6.61,11.87,-1.46,A,53,4
6.41,14.07,-0.85,A,60,5

> <-In-Situ Starting Energy>
-69.8416326

> <-In-Situ Final Energy>
15.6793118

> <In-Situ Gradient>
0.0009807130361

$$$$
6759
  SciTegic09142310043D

 48 50  0  0  0  0            999 V2000
   12.1115    1.6336   -5.5563 O   0  0  0  1  0  0
   13.1658    4.7352   -7.1575 O   0  0  0  1  0  0
   14.2992    5.3541   -4.8769 O   0  0  0  1  0  0
   12.4253    6.0808   -3.2794 O   0  0  0  1  0  0
   14.3660   -1.5131   -8.8204 O   0  0  0  1  0  0
   17.1690    1.9628   -7.5672 O   0  0  0  1  0  0
   12.7193    2.9198   -8.8876 N   0  3  2  1  0  0
   12.8117    0.4569  -10.3089 N   0  0  0  1  0  0
   15.0951    2.4581   -8.3121 N   0  0  0  1  0  0
   15.8553    0.2375   -8.2024 N   0  0  0  1  0  0
   12.0451    2.7995   -6.3543 C   0  0  2  1  0  0
   11.7407    2.5226   -7.8475 C   0  0  0  1  0  0
   13.2236    3.7583   -6.1307 C   0  0  2  1  0  0
   13.2539    4.4196   -4.7460 C   0  0  2  1  0  0
   12.0477    2.7364  -10.1564 C   0  0  0  1  0  0
   13.8934    2.1083   -8.8403 C   0  0  0  1  0  0
   12.0611    1.4870  -10.7991 C   0  0  0  1  0  0
   11.2722    3.7574  -10.6957 C   0  0  0  1  0  0
   13.7589    0.7282   -9.3937 C   0  0  0  1  0  0
   12.0276    5.2503   -4.3562 C   0  0  0  1  0  0
   10.5257    3.5502  -11.8533 C   0  0  0  1  0  0
   11.3330    1.2914  -11.9614 C   0  0  0  1  0  0
   10.5666    2.3163  -12.4993 C   0  0  0  1  0  0
   14.7408   -0.2310   -8.8099 C   0  0  0  1  0  0
    9.6601    4.6532  -12.3860 C   0  0  0  1  0  0
    9.7820    2.0797  -13.7613 C   0  0  0  1  0  0
   16.1034    1.5709   -8.0121 C   0  0  0  1  0  0
   12.8681    1.1047   -5.7895 H   0  0
   13.7019    5.4791   -6.8541 H   0  0
   14.4062    5.8412   -4.0519 H   0  0
   12.7582    5.5549   -2.5596 H   0  0
   14.4682   -1.9058   -7.9605 H   0  0
   12.9785    3.8926   -8.7399 H   0  0
   11.1615    3.3176   -5.9804 H   0  0
   11.4464    1.4807   -7.9924 H   0  0
   10.8513    3.1030   -8.0732 H   0  0
   14.1651    3.2157   -6.2180 H   0  0
   13.5047    3.6609   -3.9960 H   0  0
   11.2132    4.7180  -10.2023 H   0  0
   11.1569    4.6509   -4.0815 H   0  0
   11.7183    5.8939   -5.1798 H   0  0
   11.3626    0.3288  -12.4524 H   0  0
   10.1353    5.1340  -13.2401 H   0  0
    9.4885    5.3884  -11.6062 H   0  0
    8.6891    4.2719  -12.7024 H   0  0
    9.7932    2.9629  -14.3997 H   0  0
    8.7464    1.8410  -13.5199 H   0  0
   10.2116    1.2558  -14.3290 H   0  0
  1 11  1  0
  2 13  1  0
  3 14  1  0
  4 20  1  0
  5 24  1  0
  6 27  2  0
  7 12  1  0
  7 15  1  0
  7 16  1  0
  8 17  1  0
  8 19  2  0
  9 16  2  0
  9 27  1  0
 10 24  2  0
 10 27  1  0
 11 12  1  0
 11 13  1  0
 13 14  1  0
 14 20  1  0
 15 17  2  0
 15 18  1  0
 16 19  1  0
 17 22  1  0
 18 21  2  0
 19 24  1  0
 21 23  1  0
 21 25  1  0
 22 23  2  0
 23 26  1  0
  1 28  1  0
  2 29  1  0
  3 30  1  0
  4 31  1  0
  5 32  1  0
  7 33  1  0
 11 34  1  0
 12 35  1  0
 12 36  1  0
 13 37  1  0
 14 38  1  0
 18 39  1  0
 20 40  1  0
 20 41  1  0
 22 42  1  0
 25 43  1  0
 25 44  1  0
 25 45  1  0
 26 46  1  0
 26 47  1  0
 26 48  1  0
M  CHG  1   7   1
M  END
> <Name>
6759

> <Binding Energy>
-118.277

> <Ligand Energy>
20.2389

> <Protein Energy>
-7801.1566

> <Complex Energy>
-7899.1947

> <Complex Entropy>
-31.4844

> <Protein Entropy>
-31.4717

> <Ligand Entropy>
-19.9823

> <Entropic Energy>
19.9696

> <AbsoluteEnergy>
45.7417

> <ConfNumber>
37

> <Ionization pH>
7.39_DPP

> <IonizationIndex>
1

> <MOL_NUMBER>
315

> <NumberOfIonizations>
2

> <NumberOfStereoisomers>
2

> <NumberOfTautomers>
3

> <PUBCHEM_ATOM_DEF_STEREO_COUNT>
3

> <PUBCHEM_ATOM_UDEF_STEREO_COUNT>
0

> <PUBCHEM_BOND_DEF_STEREO_COUNT>
0

> <PUBCHEM_BOND_UDEF_STEREO_COUNT>
0

> <PUBCHEM_CACTVS_TAUTO_COUNT>
3

> <PUBCHEM_COMPONENT_COUNT>
1

> <PUBCHEM_COMPOUND_CID>
6759

> <PUBCHEM_CONFORMER_DIVERSEORDER>
1
15
10
5
7
14
11
2
13
3
12
4
9
6
8

> <PUBCHEM_CONFORMER_ID>
00001A6700000001

> <PUBCHEM_CONFORMER_RMSD>
0.8

> <PUBCHEM_COORDINATE_TYPE>
2
5
10

> <PUBCHEM_EFFECTIVE_ROTOR_COUNT>
5

> <PUBCHEM_FEATURE_SELFOVERLAP>
81.324

> <PUBCHEM_HEAVY_ATOM_COUNT>
27

> <PUBCHEM_ISOTOPIC_ATOM_COUNT>
0

> <PUBCHEM_MMFF94_ENERGY>
79.2977

> <PUBCHEM_MMFF94_PARTIAL_CHARGES>
34
1 -0.68
10 -0.49
11 0.28
12 0.37
13 0.28
14 0.28
15 0.1
16 0.5
17 0.18
18 -0.15
19 0.45
2 -0.68
20 0.28
21 -0.14
22 -0.15
23 -0.14
24 0.63
25 0.14
26 0.14
27 0.84
3 -0.68
33 0.15
36 0.15
37 0.4
38 0.4
39 0.4
4 -0.68
46 0.37
47 0.4
5 -0.57
6 -0.57
7 -0.52
8 -0.63
9 -0.66

> <PUBCHEM_PHARMACOPHORE_FEATURES>
16
1 1 acceptor
1 1 donor
1 10 donor
1 2 acceptor
1 2 donor
1 3 acceptor
1 3 donor
1 4 acceptor
1 4 donor
1 5 acceptor
1 6 acceptor
1 8 acceptor
1 9 donor
6 15 17 18 21 22 23 rings
6 7 8 15 16 17 19 rings
6 9 10 16 19 24 27 rings

> <PUBCHEM_SHAPE_FINGERPRINT>
10319926 262 18198888401388182992
10411042 1 17546444939404960482
10940486 97 18189625011333940036
1100329 8 17762625384246224491
11370993 70 18412263930597933084
11513181 2 18201717319456340254
12107183 9 18335408038553428050
12173636 292 18410853295565202996
12422481 6 17753877334559138096
12553582 1 17112429255568747318
12788726 201 17902245738353533502
13140716 1 18193283111550297611
13540713 5 17770210558769139905
138480 1 17545884832413329846
14790565 3 18267022765353133738
14844126 61 18192428791078884538
14866123 147 18410288159916786482
15042514 8 18193279821647800171
15081414 286 17044017092490537579
15230672 131 18336831871973575454
15664445 248 17408532740413042662
15927050 60 18413389817335628599
17818456 19 18263922301603364628
17913733 40 18269015119378109153
19591789 44 18194409012026995235
19930381 70 17977104552758403862
20101258 96 17327755392100891403
20775438 99 16472582775064207775
21478907 32 17762056944660220395
23366157 5 17899985932588887739
23558518 356 17900824065491969392
23559900 14 17691117141561944923
23598288 3 17899709134520332643
23728640 28 18337112387964134818
25147074 1 17842833323200493961
283562 15 18343302548799092689
3091708 16 9050542544374365987
3178227 256 18049176754919512179
352729 6 18264221355596114917
38695281 34 18410008801968237579
463206 1 17038665237197532962
532947 4 18196096547337311166
7364860 26 18121784924265425573
79837 15 18409456902817950387
9709674 26 18199196264158227806
9981440 41 18408888412710041321

> <PUBCHEM_SHAPE_MULTIPOLES>
500.51
8.56
6.56
0.78
10.24
7.25
0.1
-7.39
-0.69
-3.52
-0.09
0.36
-0.19
-0.5

> <PUBCHEM_SHAPE_SELFOVERLAP>
1073.473

> <PUBCHEM_SHAPE_VOLUME>
272.8

> <RelativeEnergy>
6.94535

> <StereoisomerIndex>
2

> <TautomerIndex>
2

> <POSE_NUMBER>
1

> <LibDockScore>
101.3632

> <HotSpots>
14.01,6.27,-5.46,P,57,2
13.41,5.07,-3.25,A,44,20
9.21,3.67,-12.86,A,26,26

> <-In-Situ Starting Energy>
-5234.52669

> <-In-Situ Final Energy>
16.2531648

> <In-Situ Gradient>
0.0009379288398

$$$$
6781
  SciTegic09142310043D

 30 30  0  0  0  0            999 V2000
    6.7827    2.8564    2.5897 O   0  0  0  1  0  0
    5.1560    1.6534   -1.8409 O   0  0  0  1  0  0
    6.8378    3.5169    0.4335 O   0  0  0  1  0  0
    3.9358    2.0141    0.0128 O   0  0  0  1  0  0
    6.8053    1.2061    1.0207 C   0  0  0  1  0  0
    5.8998    0.6803    0.1162 C   0  0  0  1  0  0
    7.7412    0.3723    1.5968 C   0  0  0  1  0  0
    5.9587   -0.6567   -0.2368 C   0  0  0  1  0  0
    6.8345    2.6388    1.2854 C   0  0  0  1  0  0
    4.9200    1.5276   -0.5436 C   0  0  0  1  0  0
    7.7252   -0.9888    1.3304 C   0  0  0  1  0  0
    6.8513   -1.5013    0.3942 C   0  0  0  1  0  0
    6.4922    4.1877    3.0126 C   0  0  0  1  0  0
    6.4802    1.6041   -2.4166 C   0  0  0  1  0  0
    7.5347    4.6274    4.0176 C   0  0  0  1  0  0
    6.4495    0.7795   -3.7015 C   0  0  0  1  0  0
    8.5012    0.8225    2.2007 H   0  0
    5.2835   -1.0479   -0.9814 H   0  0
    8.4128   -1.6637    1.8063 H   0  0
    6.8594   -2.5545    0.1610 H   0  0
    6.4372    4.8905    2.1860 H   0  0
    5.5019    4.1975    3.4418 H   0  0
    6.8033    2.6222   -2.6221 H   0  0
    7.2569    1.2084   -1.7659 H   0  0
    8.5384    4.3566    3.6970 H   0  0
    7.3575    4.1581    4.9822 H   0  0
    7.4821    5.7069    4.1590 H   0  0
    5.7691    1.2172   -4.4248 H   0  0
    6.1067   -0.2322   -3.4997 H   0  0
    7.4379    0.7168   -4.1560 H   0  0
  1  9  1  0
  1 13  1  0
  2 10  1  0
  2 14  1  0
  3  9  2  0
  4 10  2  0
  5  6  2  0
  5  7  1  0
  5  9  1  0
  6  8  1  0
  6 10  1  0
  7 11  2  0
  8 12  2  0
 11 12  1  0
 13 15  1  0
 14 16  1  0
  7 17  1  0
  8 18  1  0
 11 19  1  0
 12 20  1  0
 13 21  1  0
 13 22  1  0
 14 23  1  0
 14 24  1  0
 15 25  1  0
 15 26  1  0
 15 27  1  0
 16 28  1  0
 16 29  1  0
 16 30  1  0
M  END
> <Name>
6781

> <Binding Energy>
-66.0445

> <Ligand Energy>
-21.2115

> <Protein Energy>
-7801.1566

> <Complex Energy>
-7888.4127

> <Complex Entropy>
-31.4775

> <Protein Entropy>
-31.4717

> <Ligand Entropy>
-18.5163

> <Entropic Energy>
18.5105

> <AbsoluteEnergy>
36.8202

> <ConfNumber>
36

> <IonizationIndex>
1

> <MOL_NUMBER>
323

> <NumberOfIonizations>
1

> <NumberOfStereoisomers>
1

> <NumberOfTautomers>
1

> <PUBCHEM_ATOM_DEF_STEREO_COUNT>
0

> <PUBCHEM_ATOM_UDEF_STEREO_COUNT>
0

> <PUBCHEM_BOND_DEF_STEREO_COUNT>
0

> <PUBCHEM_BOND_UDEF_STEREO_COUNT>
0

> <PUBCHEM_CACTVS_TAUTO_COUNT>
1

> <PUBCHEM_COMPONENT_COUNT>
1

> <PUBCHEM_COMPOUND_CID>
6781

> <PUBCHEM_CONFORMER_DIVERSEORDER>
1
16
6
9
18
28
4
23
11
25
5
13
14
17
3
12
19
10
22
21
27
24
26
20
8
15
2
7

> <PUBCHEM_CONFORMER_ID>
00001A7D00000001

> <PUBCHEM_CONFORMER_RMSD>
0.8

> <PUBCHEM_COORDINATE_TYPE>
2
5
10

> <PUBCHEM_EFFECTIVE_ROTOR_COUNT>
6

> <PUBCHEM_FEATURE_SELFOVERLAP>
15.224

> <PUBCHEM_HEAVY_ATOM_COUNT>
16

> <PUBCHEM_ISOTOPIC_ATOM_COUNT>
0

> <PUBCHEM_MMFF94_ENERGY>
42.1416

> <PUBCHEM_MMFF94_PARTIAL_CHARGES>
18
1 -0.43
10 0.63
11 -0.15
12 -0.15
13 0.28
14 0.28
17 0.15
18 0.15
19 0.15
2 -0.43
20 0.15
3 -0.57
4 -0.57
5 0.09
6 0.09
7 -0.15
8 -0.15
9 0.63

> <PUBCHEM_PHARMACOPHORE_FEATURES>
3
1 3 acceptor
1 4 acceptor
6 5 6 7 8 11 12 rings

> <PUBCHEM_SHAPE_FINGERPRINT>
11578080 2 17774141539980979249
116883 192 18339341033994210357
12553582 1 18335702723684184426
13083527 12 18121751045711055768
13931106 250 18051671283770479470
14817 1 14088896566963839617
15669948 3 17901386697723474834
16945 1 17975427019936706321
17539 30 18267570326032447959
20602899 9 17482257224263995755
20645476 183 16809566140492794600
20645477 70 17976240659243153623
20671657 53 18339068389133013743
20871998 184 18050015384788267681
21421566 26 18270131106205104622
21524375 3 17179960731481407912
23114952 82 17970898093213778269
23419403 2 16962037870316775948
23530152 11 16968855048535184373
23557571 272 18127394680288692546
23559900 14 17836080071359215202
23598291 2 18270688674733327947
23728640 28 17616517468014053026
25 1 17612866415547837541
257057 1 18410846672699005252
2748010 2 18334572430315714224
3060560 45 17327159452820356253
3071541 250 18336551628412288199
53812653 217 18047748204728246667
6338986 31 18410845581745741471
6992083 37 18200331926119513387
81228 2 18264757779757780465

> <PUBCHEM_SHAPE_MULTIPOLES>
305.8
5.17
4
1.13
2.71
2.09
0.15
-6.72
-1.57
-0.39
-1.56
-0.59
-0.5
-0.64

> <PUBCHEM_SHAPE_SELFOVERLAP>
628.331

> <PUBCHEM_SHAPE_VOLUME>
177

> <RelativeEnergy>
10.2752

> <StereoisomerIndex>
1

> <TautomerIndex>
1

> <POSE_NUMBER>
1

> <LibDockScore>
66.2615

> <HotSpots>
7.01,-0.53,1.54,A,78,7
8.81,3.67,3.75,A,88,15
6.41,0.47,-4.25,A,40,16

> <-In-Situ Starting Energy>
-91.6796816

> <-In-Situ Final Energy>
45.1533846

> <In-Situ Gradient>
0.0007440605395

$$$$
6847
  SciTegic09142310043D

 20 21  0  0  0  0            999 V2000
    6.0234   12.6031   -4.5156 O   0  5  0  1  0  0
    6.6616   13.2350   -2.6027 O   0  0  0  1  0  0
    6.6033   10.3584   -1.8111 C   0  0  0  1  0  0
    6.5488    8.9609   -1.7304 C   0  0  0  1  0  0
    6.7037   10.9255   -3.0881 C   0  0  0  1  0  0
    6.9818    8.1405   -2.7644 C   0  0  0  1  0  0
    6.4822   11.1118   -0.6317 C   0  0  0  1  0  0
    5.9747    8.3545   -0.6314 C   0  0  0  1  0  0
    6.8921   10.0461   -4.1547 C   0  0  0  1  0  0
    7.1722    8.6949   -4.0099 C   0  0  0  1  0  0
    6.1018   10.4568    0.5273 C   0  0  0  1  0  0
    5.6762    9.1319    0.4543 C   0  0  0  1  0  0
    6.3889   12.3348   -3.3991 C   0  0  0  1  0  0
    7.0851    7.0814   -2.5953 H   0  0
    6.6745   12.1707   -0.5831 H   0  0
    5.7456    7.3068   -0.6592 H   0  0
    6.6499   10.3876   -5.1197 H   0  0
    7.3868    8.0737   -4.8658 H   0  0
    6.0802   10.9941    1.4616 H   0  0
    5.1059    8.6660    1.2155 H   0  0
  1 13  1  0
  2 13  2  0
  3  4  2  0
  3  5  1  0
  3  7  1  0
  4  6  1  0
  4  8  1  0
  5  9  2  0
  5 13  1  0
  6 10  2  0
  7 11  2  0
  8 12  2  0
  9 10  1  0
 11 12  1  0
  6 14  1  0
  7 15  1  0
  8 16  1  0
  9 17  1  0
 10 18  1  0
 11 19  1  0
 12 20  1  0
M  CHG  1   1  -1
M  END
> <Name>
6847

> <Binding Energy>
-30.6424

> <Ligand Energy>
40.1535

> <Protein Energy>
-7801.1566

> <Complex Energy>
-7791.6455

> <Complex Entropy>
-31.4769

> <Protein Entropy>
-31.4717

> <Ligand Entropy>
-17.7573

> <Entropic Energy>
17.7521

> <AbsoluteEnergy>
33.2707

> <ConfNumber>
1

> <Ionization pH>
7.5

> <IonizationIndex>
1

> <MOL_NUMBER>
325

> <NumberOfIonizations>
1

> <NumberOfStereoisomers>
1

> <NumberOfTautomers>
1

> <PUBCHEM_ATOM_DEF_STEREO_COUNT>
0

> <PUBCHEM_ATOM_UDEF_STEREO_COUNT>
0

> <PUBCHEM_BOND_DEF_STEREO_COUNT>
0

> <PUBCHEM_BOND_UDEF_STEREO_COUNT>
0

> <PUBCHEM_CACTVS_TAUTO_COUNT>
1

> <PUBCHEM_COMPONENT_COUNT>
1

> <PUBCHEM_COMPOUND_CID>
6847

> <PUBCHEM_CONFORMER_DIVERSEORDER>
1
2
3

> <PUBCHEM_CONFORMER_ID>
00001ABF00000001

> <PUBCHEM_CONFORMER_RMSD>
0.4

> <PUBCHEM_COORDINATE_TYPE>
2
5
10

> <PUBCHEM_EFFECTIVE_ROTOR_COUNT>
1

> <PUBCHEM_FEATURE_SELFOVERLAP>
25.456

> <PUBCHEM_HEAVY_ATOM_COUNT>
13

> <PUBCHEM_ISOTOPIC_ATOM_COUNT>
0

> <PUBCHEM_MMFF94_ENERGY>
44.3507

> <PUBCHEM_MMFF94_PARTIAL_CHARGES>
19
1 -0.65
10 -0.15
11 -0.15
12 -0.15
13 0.63
14 0.15
15 0.15
16 0.15
17 0.15
18 0.15
19 0.15
2 -0.57
20 0.15
21 0.5
5 0.09
6 -0.15
7 -0.15
8 -0.15
9 -0.15

> <PUBCHEM_PHARMACOPHORE_FEATURES>
5
1 1 acceptor
1 2 acceptor
3 1 2 13 anion
6 3 4 5 6 9 10 rings
6 3 4 7 8 11 12 rings

> <PUBCHEM_SHAPE_FINGERPRINT>
10967382 1 18194403518241311232
11206711 2 18336549330699717828
13140716 1 18266740177958749224
13380535 76 17763456214865925078
16945 1 18338797947868705280
193761 8 18338517434986307120
20201158 50 18334008419404929595
20645476 183 16888675942002880286
20645477 70 18120925377220272431
20871998 184 18055636118383757679
21501502 16 18265895748733545578
22802520 49 17768824065230271686
2334 1 18410575063494243024
23388829 49 18341887541135713676
23419403 2 16748105768520135472
23552423 10 18189342285983045212
23559900 14 17334497100200213830
241688 4 18337953385489330552
2748010 2 18339637850340835916
63268167 104 18125719230214643305
6338986 31 18268686377690427159
81228 2 18192990409381622464
8809292 202 18047478828901534954

> <PUBCHEM_SHAPE_MULTIPOLES>
255.8
3.86
2.51
0.75
0.27
1.06
-0.03
-1.88
-0.01
-0.22
0.02
-0.36
-0.19
0

> <PUBCHEM_SHAPE_SELFOVERLAP>
564.737

> <PUBCHEM_SHAPE_VOLUME>
138.2

> <RelativeEnergy>
0

> <StereoisomerIndex>
1

> <TautomerIndex>
1

> <POSE_NUMBER>
1

> <LibDockScore>
89.2054

> <HotSpots>
6.41,13.87,-3.46,P,68,1
7.21,9.27,-3.25,A,45,6
6.41,11.47,-0.06,A,67,7

> <-In-Situ Starting Energy>
-1133.57071

> <-In-Situ Final Energy>
-27.4073523

> <In-Situ Gradient>
0.0009780081522

$$$$
6849
  SciTegic09142310043D

 20 21  0  0  0  0            999 V2000
    6.3099   -0.8126    2.4030 O   0  5  0  1  0  0
    6.9776   -1.8361    0.6137 O   0  0  0  1  0  0
    6.7507   -0.8287    1.2624 N   0  3  0  1  0  0
    6.9408    0.8342   -0.6547 C   0  0  0  1  0  0
    7.4203    2.0836   -1.0840 C   0  0  0  1  0  0
    7.0698    0.4985    0.7074 C   0  0  0  1  0  0
    7.7695    3.0572   -0.1363 C   0  0  0  1  0  0
    6.3649   -0.0297   -1.5914 C   0  0  0  1  0  0
    7.5775    2.3457   -2.4551 C   0  0  0  1  0  0
    7.6136    1.4078    1.6017 C   0  0  0  1  0  0
    7.8852    2.7145    1.2099 C   0  0  0  1  0  0
    6.4989    0.2415   -2.9528 C   0  0  0  1  0  0
    7.2045    1.3623   -3.3746 C   0  0  0  1  0  0
    7.9341    4.0678   -0.4450 H   0  0
    5.8528   -0.9184   -1.2694 H   0  0
    8.0250    3.2694   -2.7910 H   0  0
    7.8473    1.0465    2.5714 H   0  0
    8.2188    3.4298    1.9456 H   0  0
    6.1038   -0.4321   -3.6967 H   0  0
    7.4358    1.4275   -4.4214 H   0  0
  1  3  1  0
  2  3  2  0
  3  6  1  0
  4  5  2  0
  4  6  1  0
  4  8  1  0
  5  7  1  0
  5  9  1  0
  6 10  2  0
  7 11  2  0
  8 12  2  0
  9 13  2  0
 10 11  1  0
 12 13  1  0
  7 14  1  0
  8 15  1  0
  9 16  1  0
 10 17  1  0
 11 18  1  0
 12 19  1  0
 13 20  1  0
M  CHG  2   1  -1   3   1
M  END
> <Name>
6849

> <Binding Energy>
-10.4557

> <Ligand Energy>
40.4203

> <Protein Energy>
-7801.1566

> <Complex Energy>
-7771.1921

> <Complex Entropy>
-31.4763

> <Protein Entropy>
-31.4717

> <Ligand Entropy>
-17.7781

> <Entropic Energy>
17.7735

> <AbsoluteEnergy>
31.1864

> <ConfNumber>
1

> <IonizationIndex>
1

> <MOL_NUMBER>
326

> <NumberOfIonizations>
1

> <NumberOfStereoisomers>
1

> <NumberOfTautomers>
1

> <PUBCHEM_ATOM_DEF_STEREO_COUNT>
0

> <PUBCHEM_ATOM_UDEF_STEREO_COUNT>
0

> <PUBCHEM_BOND_DEF_STEREO_COUNT>
0

> <PUBCHEM_BOND_UDEF_STEREO_COUNT>
0

> <PUBCHEM_CACTVS_TAUTO_COUNT>
1

> <PUBCHEM_COMPONENT_COUNT>
1

> <PUBCHEM_COMPOUND_CID>
6849

> <PUBCHEM_CONFORMER_DIVERSEORDER>
1

> <PUBCHEM_CONFORMER_ID>
00001AC100000001

> <PUBCHEM_CONFORMER_RMSD>
0.4

> <PUBCHEM_COORDINATE_TYPE>
2
5
10

> <PUBCHEM_EFFECTIVE_ROTOR_COUNT>
1

> <PUBCHEM_FEATURE_SELFOVERLAP>
25.48

> <PUBCHEM_HEAVY_ATOM_COUNT>
13

> <PUBCHEM_ISOTOPIC_ATOM_COUNT>
0

> <PUBCHEM_MMFF94_ENERGY>
56.382

> <PUBCHEM_MMFF94_PARTIAL_CHARGES>
18
1 -0.52
10 -0.15
11 -0.15
12 -0.15
13 -0.15
14 0.15
15 0.15
16 0.15
17 0.15
18 0.15
19 0.15
2 -0.52
20 0.15
3 0.91
6 0.13
7 -0.15
8 -0.15
9 -0.15

> <PUBCHEM_PHARMACOPHORE_FEATURES>
5
1 1 acceptor
1 1 anion
1 2 acceptor
6 4 5 6 7 10 11 rings
6 4 5 8 9 12 13 rings

> <PUBCHEM_SHAPE_FINGERPRINT>
10967382 1 18338797939115233894
11206711 2 18336830788338284260
11471102 20 18410006676317927495
161256 15 18413105074025305824
16945 1 18410856568345892132
17990270 104 18120652684781281827
193761 8 18338517422169795108
20201158 50 18335979843700745395
20645477 70 17976529839433384599
20871998 184 18129375990913441014
21501502 16 18266180530792908600
22802520 49 17626394419842356678
2334 1 17762338419551839880
23463225 33 18408886217881434632
23552423 10 18261118413628948308
23559900 14 17190944849108526894
241688 4 18409730621220932800
2748010 2 18267020548812327388
528886 8 18339639056962798114
66348 1 18411419548363974090
7364860 26 18126004003473263649
81228 2 18265339404054918288
8809292 202 18260271870995577282

> <PUBCHEM_SHAPE_MULTIPOLES>
250.81
3.87
2.57
0.6
0.07
0.59
0
-1.46
0
-0.59
0
0.05
0.03
0

> <PUBCHEM_SHAPE_SELFOVERLAP>
554.582

> <PUBCHEM_SHAPE_VOLUME>
135.2

> <RelativeEnergy>
0

> <StereoisomerIndex>
1

> <TautomerIndex>
1

> <POSE_NUMBER>
1

> <LibDockScore>
65.2499

> <HotSpots>
7.61,2.87,-1.05,A,58,9
7.01,-0.53,1.54,A,78,10
7.21,1.27,-2.85,A,46,12

> <-In-Situ Starting Energy>
-8094.88568

> <-In-Situ Final Energy>
-22.1977887

> <In-Situ Gradient>
0.0008848410743

$$$$
6873
  SciTegic09142310043D

 27 27  0  0  0  0            999 V2000
    5.6039   11.0202   -0.4482 O   0  0  0  1  0  0
    5.4690    8.9430    0.3468 O   0  0  0  1  0  0
    6.3515    7.1283   -1.9156 O   0  5  0  1  0  0
    6.8923   13.0828    0.1544 C   0  0  0  1  0  0
    6.6510   11.5639    0.3231 C   0  0  0  1  0  0
    6.8191   13.7571   -1.2397 C   0  0  0  1  0  0
    6.5858   14.0215    1.2908 C   0  0  0  1  0  0
    6.3620    9.4358   -1.8972 C   0  0  0  1  0  0
    5.7402    9.6928   -0.5801 C   0  0  0  1  0  0
    6.7159    8.1867   -2.4041 C   0  0  0  1  0  0
    6.5710   10.5291   -2.7198 C   0  0  0  1  0  0
    7.4808    8.1145   -3.5603 C   0  0  0  1  0  0
    7.1335   10.4080   -3.9531 C   0  0  0  1  0  0
    7.7067    9.2189   -4.3419 C   0  0  0  1  0  0
    7.9088   13.0154    0.4711 H   0  0
    7.5453   11.0487   -0.0158 H   0  0
    6.4665   11.3113    1.3699 H   0  0
    5.8356   14.0090   -1.5727 H   0  0
    7.3447   13.2039   -2.0085 H   0  0
    7.2314   14.7570   -1.2508 H   0  0
    7.0978   13.6169    2.1631 H   0  0
    5.5243   14.2371    1.3970 H   0  0
    7.1082   14.9607    1.2497 H   0  0
    6.2442   11.5124   -2.4862 H   0  0
    7.7998    7.1474   -3.9060 H   0  0
    7.0798   11.2939   -4.5515 H   0  0
    8.2562    9.1121   -5.2605 H   0  0
  1  5  1  0
  1  9  1  0
  2  9  2  0
  3 10  1  0
  4  5  1  0
  4  6  1  0
  4  7  1  0
  8  9  1  0
  8 10  2  0
  8 11  1  0
 10 12  1  0
 11 13  2  0
 12 14  2  0
 13 14  1  0
  4 15  1  0
  5 16  1  0
  5 17  1  0
  6 18  1  0
  6 19  1  0
  6 20  1  0
  7 21  1  0
  7 22  1  0
  7 23  1  0
 11 24  1  0
 12 25  1  0
 13 26  1  0
 14 27  1  0
M  CHG  1   3  -1
M  END
> <Name>
6873

> <Binding Energy>
-45.4024

> <Ligand Energy>
72.1794

> <Protein Energy>
-7801.1566

> <Complex Energy>
-7774.3797

> <Complex Entropy>
-31.4775

> <Protein Entropy>
-31.4717

> <Ligand Entropy>
-18.1873

> <Entropic Energy>
18.1814

> <AbsoluteEnergy>
16.8886

> <ConfNumber>
3

> <Ionization pH>
8.02_D

> <IonizationIndex>
2

> <MOL_NUMBER>
329

> <NumberOfIonizations>
2

> <NumberOfStereoisomers>
1

> <NumberOfTautomers>
1

> <PUBCHEM_ATOM_DEF_STEREO_COUNT>
0

> <PUBCHEM_ATOM_UDEF_STEREO_COUNT>
0

> <PUBCHEM_BOND_DEF_STEREO_COUNT>
0

> <PUBCHEM_BOND_UDEF_STEREO_COUNT>
0

> <PUBCHEM_CACTVS_TAUTO_COUNT>
4

> <PUBCHEM_COMPONENT_COUNT>
1

> <PUBCHEM_COMPOUND_CID>
6873

> <PUBCHEM_CONFORMER_DIVERSEORDER>
1
38
14
40
28
22
21
31
19
20
37
24
25
23
27
11
29
9
34
3
10
26
33
39
30
35
13
18
16
36
17
12
6
32
15
5
7
4
8
2

> <PUBCHEM_CONFORMER_ID>
00001AD900000001

> <PUBCHEM_CONFORMER_RMSD>
0.6

> <PUBCHEM_COORDINATE_TYPE>
2
5
10

> <PUBCHEM_EFFECTIVE_ROTOR_COUNT>
4

> <PUBCHEM_FEATURE_SELFOVERLAP>
20.297

> <PUBCHEM_HEAVY_ATOM_COUNT>
14

> <PUBCHEM_ISOTOPIC_ATOM_COUNT>
0

> <PUBCHEM_MMFF94_ENERGY>
33.0735

> <PUBCHEM_MMFF94_PARTIAL_CHARGES>
16
1 -0.43
10 0.08
11 -0.15
12 -0.15
13 -0.15
14 -0.15
2 -0.57
24 0.15
25 0.15
26 0.15
27 0.15
28 0.45
3 -0.53
5 0.28
8 0.09
9 0.63

> <PUBCHEM_PHARMACOPHORE_FEATURES>
4
1 2 acceptor
1 3 donor
3 4 6 7 hydrophobe
6 8 10 11 12 13 14 rings

> <PUBCHEM_SHAPE_FINGERPRINT>
10465860 228 18342464694424546697
10608611 8 18335419032962881925
10980938 120 18409446998897496472
11471102 20 18410008840781081956
12251169 10 18335421287688603079
12346645 6 18342177756613523390
13922767 16 18412259510728334912
14144814 61 18410011022555864097
14325111 11 18411699898233359005
14897335 6 18342454893325053374
15219456 202 18334292029191220677
15442244 35 18195246615863180992
15775835 57 18271528692631245397
16945 1 18337658789846148012
17802600 8 18410007745781017517
18186145 218 18201728331545783549
20233049 118 17703788119940249736
20645477 70 18341332197532742855
20871998 22 18124595280687676950
21524375 3 18343022237309658359
21652331 79 18410293635994683957
22485316 2 8214140742300765265
22854114 111 18410858780359635625
23402539 116 14908180832919268568
23402655 69 18343580733376887965
2748010 2 18050551955711725804
2838139 119 15410035422654372136
293599 30 18265619960779481252
351380 180 18333447651722065185
42 15 18113901554801280481
4921388 177 14836115607315494709
5104073 3 18336548222941164241
6333272 397 18411139160262097683
69090 78 18411134770990260827
7364860 26 18343305842769625854
7832392 63 18270677705254764396

> <PUBCHEM_SHAPE_MULTIPOLES>
270.51
8.22
1.93
0.69
7.77
0.01
-0.01
-1.85
1.27
-1
-0.19
0.11
0.02
0.06

> <PUBCHEM_SHAPE_SELFOVERLAP>
553.686

> <PUBCHEM_SHAPE_VOLUME>
156.9

> <RelativeEnergy>
0.258489

> <StereoisomerIndex>
1

> <TautomerIndex>
1

> <POSE_NUMBER>
1

> <LibDockScore>
87.9736

> <HotSpots>
6.81,12.47,1.15,A,75,5
7.21,14.67,2.35,A,81,6
8.01,10.07,-2.25,A,50,11

> <-In-Situ Starting Energy>
-2808.2859

> <-In-Situ Final Energy>
-51.0952314

> <In-Situ Gradient>
0.0008490280719

$$$$
7144
  SciTegic09142310043D

 20 20  0  0  0  0            999 V2000
    6.6032   12.4191   -1.0341 O   0  0  0  1  0  0
    5.8912   10.6186    0.7752 O   0  0  0  1  0  0
    6.8587    9.2235   -2.9842 C   0  0  0  1  0  0
    6.6146   11.0750   -1.4423 C   0  0  0  1  0  0
    6.8694   10.5918   -2.7268 C   0  0  0  1  0  0
    6.4451    8.3522   -1.9906 C   0  0  0  1  0  0
    6.2476   10.1671   -0.4628 C   0  0  0  1  0  0
    6.1305    8.8213   -0.7320 C   0  0  0  1  0  0
    7.2826    8.6742   -4.3128 C   0  0  0  1  0  0
    6.8677   13.4509   -1.9731 C   0  0  0  1  0  0
    4.9603   10.4580    0.8803 H   0  0
    7.0504   11.2430   -3.5587 H   0  0
    6.4060    7.2881   -2.1579 H   0  0
    5.8319    8.1285    0.0407 H   0  0
    7.9085    9.3838   -4.8480 H   0  0
    6.4048    8.4399   -4.9087 H   0  0
    7.8577    7.7577   -4.1794 H   0  0
    6.3899   13.2880   -2.9398 H   0  0
    7.9268   13.5788   -2.1153 H   0  0
    6.4952   14.3962   -1.5789 H   0  0
  1  4  1  0
  1 10  1  0
  2  7  1  0
  3  5  2  0
  3  6  1  0
  3  9  1  0
  4  5  1  0
  4  7  2  0
  6  8  2  0
  7  8  1  0
  2 11  1  0
  5 12  1  0
  6 13  1  0
  8 14  1  0
  9 15  1  0
  9 16  1  0
  9 17  1  0
 10 18  1  0
 10 19  1  0
 10 20  1  0
M  END
> <Name>
7144

> <Binding Energy>
-15.9726

> <Ligand Energy>
7.7507

> <Protein Energy>
-7801.1566

> <Complex Energy>
-7809.3786

> <Complex Entropy>
-31.4759

> <Protein Entropy>
-31.4717

> <Ligand Entropy>
-17.2483

> <Entropic Energy>
17.2441

> <AbsoluteEnergy>
23.2739

> <ConfNumber>
2

> <Ionization pH>
7.5

> <IonizationIndex>
1

> <MOL_NUMBER>
337

> <NumberOfIonizations>
1

> <NumberOfStereoisomers>
1

> <NumberOfTautomers>
1

> <PUBCHEM_ATOM_DEF_STEREO_COUNT>
0

> <PUBCHEM_ATOM_UDEF_STEREO_COUNT>
0

> <PUBCHEM_BOND_DEF_STEREO_COUNT>
0

> <PUBCHEM_BOND_UDEF_STEREO_COUNT>
0

> <PUBCHEM_CACTVS_TAUTO_COUNT>
3

> <PUBCHEM_COMPONENT_COUNT>
1

> <PUBCHEM_COMPOUND_CID>
7144

> <PUBCHEM_CONFORMER_DIVERSEORDER>
3
1
2

> <PUBCHEM_CONFORMER_ID>
00001BE800000003

> <PUBCHEM_CONFORMER_RMSD>
0.4

> <PUBCHEM_COORDINATE_TYPE>
2
5
10

> <PUBCHEM_EFFECTIVE_ROTOR_COUNT>
1

> <PUBCHEM_FEATURE_SELFOVERLAP>
15.223

> <PUBCHEM_HEAVY_ATOM_COUNT>
10

> <PUBCHEM_ISOTOPIC_ATOM_COUNT>
0

> <PUBCHEM_MMFF94_ENERGY>
33.0706

> <PUBCHEM_MMFF94_PARTIAL_CHARGES>
14
1 -0.36
10 0.28
11 0.15
12 0.15
13 0.15
2 -0.53
20 0.45
3 -0.14
4 0.08
5 -0.15
6 -0.15
7 0.08
8 -0.15
9 0.14

> <PUBCHEM_PHARMACOPHORE_FEATURES>
3
1 1 acceptor
1 2 donor
6 3 4 5 6 7 8 rings

> <PUBCHEM_SHAPE_FINGERPRINT>
14128692 85 18410301332443858958
161256 15 18269279139143478292
16945 1 18194401087237249540
18185500 45 17981324808876607510
193761 8 18410856589852617476
20871998 184 18201154356438038198
21040471 1 18050567335483470116
23552423 10 18260552246676411550
241688 4 18408603656156861024
2748010 2 18411695482986003252
29004967 10 18048597311257146755

> <PUBCHEM_SHAPE_MULTIPOLES>
194.06
3.21
2.34
0.6
0.34
0.3
0
-1.69
0
-0.7
0
0.04
-0.01
0

> <PUBCHEM_SHAPE_SELFOVERLAP>
400.678

> <PUBCHEM_SHAPE_VOLUME>
112.8

> <RelativeEnergy>
2.78361

> <StereoisomerIndex>
1

> <TautomerIndex>
1

> <POSE_NUMBER>
1

> <LibDockScore>
81.0534

> <HotSpots>
5.81,9.67,0.14,A,68,8
7.21,9.27,-3.25,A,45,9
6.41,14.07,-0.85,A,60,10

> <-In-Situ Starting Energy>
-175.215548

> <-In-Situ Final Energy>
8.30255933

> <In-Situ Gradient>
0.0007996304941

$$$$
7170
  SciTegic09142310043D

 26 26  0  0  0  0            999 V2000
    7.0164   13.5713    0.0514 O   0  0  0  1  0  0
    5.9451   11.2453   -0.5479 O   0  0  0  1  0  0
    5.8522   14.7638   -1.3932 O   0  0  0  1  0  0
    6.9351   12.8105   -2.0707 C   0  0  0  1  0  0
    6.8686   10.2252   -2.3747 C   0  0  0  1  0  0
    6.5932   11.3834   -1.5433 C   0  0  0  1  0  0
    7.2427   10.3215   -3.7070 C   0  0  0  1  0  0
    6.6671    8.9780   -1.8232 C   0  0  0  1  0  0
    6.5551   13.8358   -1.1081 C   0  0  0  1  0  0
    6.2852   13.9808    1.1504 C   0  0  0  1  0  0
    7.7523    9.2136   -4.3610 C   0  0  0  1  0  0
    6.9980    7.8645   -2.5601 C   0  0  0  1  0  0
    7.6394    7.9803   -3.7808 C   0  0  0  1  0  0
    7.1024   14.7877    2.1446 C   0  0  0  1  0  0
    6.4644   13.0235   -3.0317 H   0  0
    7.9594   13.0926   -2.0967 H   0  0
    7.1403   11.2427   -4.2491 H   0  0
    6.2649    8.8607   -0.8253 H   0  0
    5.3256   14.4418    0.9135 H   0  0
    6.1331   12.9884    1.5377 H   0  0
    8.2131    9.2590   -5.3282 H   0  0
    6.7980    6.8826   -2.1552 H   0  0
    7.9804    7.1034   -4.3116 H   0  0
    7.8355   15.4672    1.7201 H   0  0
    7.5672   14.0418    2.7725 H   0  0
    6.4646   15.3615    2.8104 H   0  0
  1  9  1  0
  1 10  1  0
  2  6  2  0
  3  9  2  0
  4  6  1  0
  4  9  1  0
  5  6  1  0
  5  7  2  0
  5  8  1  0
  7 11  1  0
  8 12  2  0
 10 14  1  0
 11 13  2  0
 12 13  1  0
  4 15  1  0
  4 16  1  0
  7 17  1  0
  8 18  1  0
 10 19  1  0
 10 20  1  0
 11 21  1  0
 12 22  1  0
 13 23  1  0
 14 24  1  0
 14 25  1  0
 14 26  1  0
M  END
> <Name>
7170

> <Binding Energy>
-3.9073

> <Ligand Energy>
16.9618

> <Protein Energy>
-7801.1566

> <Complex Energy>
-7788.1021

> <Complex Entropy>
-31.4777

> <Protein Entropy>
-31.4717

> <Ligand Entropy>
-18.1951

> <Entropic Energy>
18.189

> <AbsoluteEnergy>
17.1226

> <ConfNumber>
2

> <Ionization pH>
6.84_P

> <IonizationIndex>
1

> <MOL_NUMBER>
339

> <NumberOfIonizations>
2

> <NumberOfStereoisomers>
1

> <NumberOfTautomers>
1

> <PUBCHEM_ATOM_DEF_STEREO_COUNT>
0

> <PUBCHEM_ATOM_UDEF_STEREO_COUNT>
0

> <PUBCHEM_BOND_DEF_STEREO_COUNT>
0

> <PUBCHEM_BOND_UDEF_STEREO_COUNT>
0

> <PUBCHEM_CACTVS_TAUTO_COUNT>
3

> <PUBCHEM_COMPONENT_COUNT>
1

> <PUBCHEM_COMPOUND_CID>
7170

> <PUBCHEM_CONFORMER_DIVERSEORDER>
1
119
47
87
32
110
13
125
76
39
164
28
8
3
106
21
140
93
46
67
12
160
139
130
27
104
54
154
79
75
168
120
73
62
82
71
9
60
77
41
118
5
141
57
45
23
137
126
145
74
98
100
56
169
53
72
89
6
151
17
11
34
149
157
116
150
107
42
86
4
80
40
167
170
114
101
88
155
24
113
102
124
123
147
90
37
143
97
66
166
78
63
35
117
144
22
26
50
152
58
105
14
44
68
29
133
136
64
85
48
65
59
49
15
95
122
69
109
51
7
103
158
131
10
163
2
99
83
55
96
156
127
111
81
148
38
138
129
61
84
92
159
162
25
135
20
33
165
128
31
153
43
108
52
19
16
18
30
36
94
121
70
115
142
161
146
91
132
112
134

> <PUBCHEM_CONFORMER_ID>
00001C0200000001

> <PUBCHEM_CONFORMER_RMSD>
0.6

> <PUBCHEM_COORDINATE_TYPE>
2
5
10

> <PUBCHEM_EFFECTIVE_ROTOR_COUNT>
5

> <PUBCHEM_FEATURE_SELFOVERLAP>
20.301

> <PUBCHEM_HEAVY_ATOM_COUNT>
14

> <PUBCHEM_ISOTOPIC_ATOM_COUNT>
0

> <PUBCHEM_MMFF94_ENERGY>
27.1318

> <PUBCHEM_MMFF94_PARTIAL_CHARGES>
18
1 -0.43
10 0.28
11 -0.15
12 -0.15
13 -0.15
17 0.15
18 0.15
2 -0.57
21 0.15
22 0.15
23 0.15
3 -0.57
4 0.12
5 0.09
6 0.42
7 -0.15
8 -0.15
9 0.66

> <PUBCHEM_PHARMACOPHORE_FEATURES>
4
1 2 acceptor
1 3 acceptor
1 4 anion
6 5 7 8 11 12 13 rings

> <PUBCHEM_SHAPE_FINGERPRINT>
11458722 379 18334013873929259490
12032990 46 18341333374332215083
12186901 62 17676478450540875927
12555020 224 18410847764027400383
13288520 33 18342460313990512406
13296908 3 18341891939139974873
13690532 89 18411982447189406934
13897977 58 10087631620060544874
14123255 52 8358254830965226568
14252887 29 16271933679900238582
14911166 2 18408595960065920901
17834072 33 18335425694836667612
17834072 8 18261104154390214999
17870717 6 18337681827465616350
18186145 218 17749100123486287369
1986462 14 18333450941207974127
200 152 18202281398689818394
20201158 50 18412545405405819151
20281475 54 18269843180240080459
20325693 3 17748827410728202839
20374829 77 18412541002869109935
20432913 95 16558754494592394862
20645476 183 17168141260782511819
20645477 70 18413108381392782030
20671657 53 18342745134509727064
20871999 31 18186795864366458141
21119208 17 17748826314910038766
21267235 1 18408892845164016291
21652331 79 9439402423939800382
221490 88 18190468349024909138
22485316 2 18201997771902837418
23402539 116 18342453703598110980
23402655 69 17531520984332902780
23403322 49 18413108350911363838
23559900 14 18410848880813543856
2916195 48 11386666143173343470
42 15 12031795759916964036
4921388 177 16081382881082431867
559249 180 18263358092908099050
58051976 100 18113615698879079343
76465 3 17916295207834011327
8809292 202 18334579096078447619
90316 7 13686035201773236555
93112 12 18259702323977202589
9709674 26 18117560840803944770

> <PUBCHEM_SHAPE_MULTIPOLES>
270.51
9.85
1.6
0.76
9.42
0.07
-0.01
-4.23
-2.38
-0.21
0.12
-0.21
0.04
0.35

> <PUBCHEM_SHAPE_SELFOVERLAP>
553.685

> <PUBCHEM_SHAPE_VOLUME>
156.3

> <RelativeEnergy>
0.00931661

> <StereoisomerIndex>
1

> <TautomerIndex>
1

> <POSE_NUMBER>
1

> <LibDockScore>
95.6783

> <HotSpots>
5.61,14.27,0.34,P,87,3
7.21,14.67,2.35,A,81,10
7.21,9.27,-3.25,A,45,11

> <-In-Situ Starting Energy>
-6086.03021

> <-In-Situ Final Energy>
-46.9389324

> <In-Situ Gradient>
0.0008676601247

$$$$
7196
  SciTegic09142310043D

 17 18  0  0  0  0            999 V2000
    5.8005    8.3999   -0.3655 O   0  0  0  1  0  0
    5.6768   10.5943   -0.5208 O   0  0  0  1  0  0
    8.1519    6.6771   -4.8259 O   0  5  0  1  0  0
    9.0067    8.5338   -5.5102 O   0  0  0  1  0  0
    6.3889    8.7468   -1.5917 C   0  0  0  1  0  0
    6.3253   10.1373   -1.6770 C   0  0  0  1  0  0
    6.9698    8.0039   -2.5747 C   0  0  0  1  0  0
    7.5714    8.6353   -3.6602 C   0  0  0  1  0  0
    5.5874    9.5506    0.4221 C   0  0  0  1  0  0
    6.8498   10.7818   -2.7376 C   0  0  0  1  0  0
    7.5121   10.0224   -3.6962 C   0  0  0  1  0  0
    8.2880    7.8990   -4.7278 C   0  0  0  1  0  0
    7.0223    6.9334   -2.4597 H   0  0
    6.4301    9.6653    1.0999 H   0  0
    4.6248    9.5188    0.9288 H   0  0
    6.7641   11.8515   -2.7992 H   0  0
    8.0451   10.4874   -4.4693 H   0  0
  1  5  1  0
  1  9  1  0
  2  6  1  0
  2  9  1  0
  3 12  1  0
  4 12  2  0
  5  6  2  0
  5  7  1  0
  6 10  1  0
  7  8  2  0
  8 11  1  0
  8 12  1  0
 10 11  2  0
  7 13  1  0
  9 14  1  0
  9 15  1  0
 10 16  1  0
 11 17  1  0
M  CHG  1   3  -1
M  END
> <Name>
7196

> <Binding Energy>
-46.6443

> <Ligand Energy>
13.2174

> <Protein Energy>
-7801.1566

> <Complex Energy>
-7834.5835

> <Complex Entropy>
-31.4766

> <Protein Entropy>
-31.4717

> <Ligand Entropy>
-17.6262

> <Entropic Energy>
17.6213

> <AbsoluteEnergy>
60.7579

> <ConfNumber>
1

> <Ionization pH>
7.5

> <IonizationIndex>
1

> <MOL_NUMBER>
341

> <NumberOfIonizations>
1

> <NumberOfStereoisomers>
1

> <NumberOfTautomers>
1

> <PUBCHEM_ATOM_DEF_STEREO_COUNT>
0

> <PUBCHEM_ATOM_UDEF_STEREO_COUNT>
0

> <PUBCHEM_BOND_DEF_STEREO_COUNT>
0

> <PUBCHEM_BOND_UDEF_STEREO_COUNT>
0

> <PUBCHEM_CACTVS_TAUTO_COUNT>
1

> <PUBCHEM_COMPONENT_COUNT>
1

> <PUBCHEM_COMPOUND_CID>
7196

> <PUBCHEM_CONFORMER_DIVERSEORDER>
1
2

> <PUBCHEM_CONFORMER_ID>
00001C1C00000001

> <PUBCHEM_CONFORMER_RMSD>
0.4

> <PUBCHEM_COORDINATE_TYPE>
2
5
10

> <PUBCHEM_EFFECTIVE_ROTOR_COUNT>
1.6

> <PUBCHEM_FEATURE_SELFOVERLAP>
35.735

> <PUBCHEM_HEAVY_ATOM_COUNT>
12

> <PUBCHEM_ISOTOPIC_ATOM_COUNT>
0

> <PUBCHEM_MMFF94_ENERGY>
32.0083

> <PUBCHEM_MMFF94_PARTIAL_CHARGES>
16
1 -0.36
10 -0.15
11 -0.15
12 0.63
13 0.15
16 0.15
17 0.15
18 0.5
2 -0.36
3 -0.65
4 -0.57
5 0.08
6 0.08
7 -0.15
8 0.09
9 0.56

> <PUBCHEM_PHARMACOPHORE_FEATURES>
7
1 1 acceptor
1 2 acceptor
1 3 acceptor
1 4 acceptor
3 3 4 12 anion
5 1 2 5 6 9 rings
6 5 6 7 8 10 11 rings

> <PUBCHEM_SHAPE_FINGERPRINT>
10130415 120 18335979783454944625
10219947 1 18272934912010256159
10857977 72 18339913887598695696
11471102 20 18410006628799136549
11769659 78 18410849975502676899
12032990 46 18411144631813146790
12897270 3 18410011018086764974
12932764 1 17312812771597629287
14128692 85 18411703209415812933
14325111 11 18410574015305983937
16945 1 18410856564019321796
17844478 74 17894919516273414293
193761 8 17402050501081181792
20201158 50 18408602548007838571
20645477 70 18412258407380955399
20871998 22 18199193888693426134
21501925 9 18339068401859250723
23402655 69 18268696252643186829
23463225 33 18409448055375100742
23552423 10 18260832613271965469
2748010 2 18410854373501449060
3312278 4 18411141341904868097
528886 8 18411976962036005235
53812653 166 18271519896628082704
63268167 104 18412268345560400617
8809292 202 18260272949090273915

> <PUBCHEM_SHAPE_MULTIPOLES>
223.48
4.9
1.62
0.58
1.18
0.17
0
-0.98
0
-0.05
0
-0.01
0.01
0

> <PUBCHEM_SHAPE_SELFOVERLAP>
492.234

> <PUBCHEM_SHAPE_VOLUME>
120.8

> <RelativeEnergy>
0

> <StereoisomerIndex>
1

> <TautomerIndex>
1

> <POSE_NUMBER>
1

> <LibDockScore>
92.8747

> <HotSpots>
5.81,9.67,0.14,A,68,9
7.01,11.07,-2.85,A,47,10
8.41,8.07,-4.86,A,38,12

> <-In-Situ Starting Energy>
-51.9463252

> <-In-Situ Final Energy>
13.3408588

> <In-Situ Gradient>
0.0009853323443

$$$$
7361
  SciTegic09142310043D

 13 13  0  0  0  0            999 V2000
    6.2051   10.5117    0.4994 O   0  0  0  1  0  0
    7.0737   13.1469    1.1099 O   0  0  0  1  0  0
    6.5235   11.4148   -0.4697 C   0  0  0  1  0  0
    6.6419   12.9052   -0.2046 C   0  0  0  1  0  0
    6.7142   10.7673   -1.6958 C   0  0  0  1  0  0
    6.5029    9.4085   -1.4585 C   0  0  0  1  0  0
    6.1812    9.2914   -0.1030 C   0  0  0  1  0  0
    7.5495   12.3738    1.4146 H   0  0
    7.2868   13.3989   -0.9286 H   0  0
    5.6915   13.4035   -0.2989 H   0  0
    6.9717   11.2113   -2.6436 H   0  0
    6.5697    8.6041   -2.1764 H   0  0
    5.9499    8.3630    0.3978 H   0  0
  1  3  1  0
  1  7  1  0
  2  4  1  0
  3  4  1  0
  3  5  2  0
  5  6  1  0
  6  7  2  0
  2  8  1  0
  4  9  1  0
  4 10  1  0
  5 11  1  0
  6 12  1  0
  7 13  1  0
M  END
> <Name>
7361

> <Binding Energy>
-25.2972

> <Ligand Energy>
3.0876

> <Protein Energy>
-7801.1566

> <Complex Energy>
-7823.3663

> <Complex Entropy>
-31.4747

> <Protein Entropy>
-31.4717

> <Ligand Entropy>
-16.1554

> <Entropic Energy>
16.1524

> <AbsoluteEnergy>
1.92763

> <ConfNumber>
1

> <IonizationIndex>
1

> <MOL_NUMBER>
343

> <NumberOfIonizations>
1

> <NumberOfStereoisomers>
1

> <NumberOfTautomers>
1

> <PUBCHEM_ATOM_DEF_STEREO_COUNT>
0

> <PUBCHEM_ATOM_UDEF_STEREO_COUNT>
0

> <PUBCHEM_BOND_DEF_STEREO_COUNT>
0

> <PUBCHEM_BOND_UDEF_STEREO_COUNT>
0

> <PUBCHEM_CACTVS_TAUTO_COUNT>
1

> <PUBCHEM_COMPONENT_COUNT>
1

> <PUBCHEM_COMPOUND_CID>
7361

> <PUBCHEM_CONFORMER_DIVERSEORDER>
1
4
3
2

> <PUBCHEM_CONFORMER_ID>
00001CC100000001

> <PUBCHEM_CONFORMER_RMSD>
0.4

> <PUBCHEM_COORDINATE_TYPE>
2
5
10

> <PUBCHEM_EFFECTIVE_ROTOR_COUNT>
1

> <PUBCHEM_FEATURE_SELFOVERLAP>
20.3

> <PUBCHEM_HEAVY_ATOM_COUNT>
7

> <PUBCHEM_ISOTOPIC_ATOM_COUNT>
0

> <PUBCHEM_MMFF94_ENERGY>
2.174

> <PUBCHEM_MMFF94_PARTIAL_CHARGES>
11
1 -0.28
10 0.15
11 0.15
12 0.15
13 0.4
2 -0.68
3 -0.04
4 0.46
5 -0.15
6 -0.15
7 -0.01

> <PUBCHEM_PHARMACOPHORE_FEATURES>
4
1 1 acceptor
1 2 acceptor
1 2 donor
5 1 3 5 6 7 rings

> <PUBCHEM_SHAPE_FINGERPRINT>
10857977 72 18337950211355329579
16714656 1 18409175402113510103
20096714 4 18267870471237275095
21040471 1 18191595150742917565
23552423 10 18114472162565742222
29004967 10 18338526321114997371
369184 2 18261664935153081946
5460574 1 8935003659145884030

> <PUBCHEM_SHAPE_MULTIPOLES>
132.32
2.76
1.11
0.67
1.19
0.02
0
-0.18
-0.33
-0.33
0.01
0.1
0.01
0.14

> <PUBCHEM_SHAPE_SELFOVERLAP>
269.665

> <PUBCHEM_SHAPE_VOLUME>
78.6

> <RelativeEnergy>
0

> <StereoisomerIndex>
1

> <TautomerIndex>
1

> <POSE_NUMBER>
1

> <LibDockScore>
61.276

> <HotSpots>
7.01,13.87,1.54,A,79,4
6.41,14.07,-0.85,A,60,5
6.61,11.87,-1.46,A,53,7

> <-In-Situ Starting Energy>
-12.7792977

> <-In-Situ Final Energy>
19.5151238

> <In-Situ Gradient>
0.0005816973279

$$$$
7410
  SciTegic09142310043D

 17 17  0  0  0  0            999 V2000
    7.9656   -0.1754    0.3859 O   0  0  0  1  0  0
    7.2495    1.7676    1.4279 C   0  0  0  1  0  0
    6.1481    2.5266    1.8117 C   0  0  0  1  0  0
    8.4838    2.0345    2.0069 C   0  0  0  1  0  0
    7.1424    0.6842    0.4386 C   0  0  0  1  0  0
    6.2950    3.5357    2.7560 C   0  0  0  1  0  0
    8.6295    3.0400    2.9514 C   0  0  0  1  0  0
    7.5275    3.7877    3.3346 C   0  0  0  1  0  0
    5.9654    0.6880   -0.5430 C   0  0  0  1  0  0
    5.1746    2.3414    1.3862 H   0  0
    9.3395    1.4451    1.7272 H   0  0
    5.4537    4.1384    3.0563 H   0  0
    9.6013    3.2420    3.3796 H   0  0
    7.6211    4.5759    4.0697 H   0  0
    5.0597    0.3638   -0.0376 H   0  0
    6.1727   -0.0071   -1.3574 H   0  0
    5.8206    1.6832   -0.9641 H   0  0
  1  5  2  0
  2  3  2  0
  2  4  1  0
  2  5  1  0
  3  6  1  0
  4  7  2  0
  5  9  1  0
  6  8  2  0
  7  8  1  0
  3 10  1  0
  4 11  1  0
  6 12  1  0
  7 13  1  0
  8 14  1  0
  9 15  1  0
  9 16  1  0
  9 17  1  0
M  END
> <Name>
7410

> <Binding Energy>
-31.9858

> <Ligand Energy>
3.8382

> <Protein Energy>
-7801.1566

> <Complex Energy>
-7829.3042

> <Complex Entropy>
-31.4749

> <Protein Entropy>
-31.4717

> <Ligand Entropy>
-16.8275

> <Entropic Energy>
16.8243

> <AbsoluteEnergy>
13.436

> <ConfNumber>
1

> <IonizationIndex>
1

> <MOL_NUMBER>
344

> <NumberOfIonizations>
1

> <NumberOfStereoisomers>
1

> <NumberOfTautomers>
1

> <PUBCHEM_ATOM_DEF_STEREO_COUNT>
0

> <PUBCHEM_ATOM_UDEF_STEREO_COUNT>
0

> <PUBCHEM_BOND_DEF_STEREO_COUNT>
0

> <PUBCHEM_BOND_UDEF_STEREO_COUNT>
0

> <PUBCHEM_CACTVS_TAUTO_COUNT>
2

> <PUBCHEM_COMPONENT_COUNT>
1

> <PUBCHEM_COMPOUND_CID>
7410

> <PUBCHEM_CONFORMER_DIVERSEORDER>
1
2

> <PUBCHEM_CONFORMER_ID>
00001CF200000001

> <PUBCHEM_CONFORMER_RMSD>
0.4

> <PUBCHEM_COORDINATE_TYPE>
2
5
10

> <PUBCHEM_EFFECTIVE_ROTOR_COUNT>
1

> <PUBCHEM_FEATURE_SELFOVERLAP>
10.148

> <PUBCHEM_HEAVY_ATOM_COUNT>
9

> <PUBCHEM_ISOTOPIC_ATOM_COUNT>
0

> <PUBCHEM_MMFF94_ENERGY>
23.4732

> <PUBCHEM_MMFF94_PARTIAL_CHARGES>
14
1 -0.57
10 0.15
11 0.15
12 0.15
13 0.15
14 0.15
2 0.09
3 -0.15
4 -0.15
5 0.42
6 -0.15
7 -0.15
8 -0.15
9 0.06

> <PUBCHEM_PHARMACOPHORE_FEATURES>
2
1 1 acceptor
6 2 3 4 6 7 8 rings

> <PUBCHEM_SHAPE_FINGERPRINT>
10857977 72 18266732670028855049
12897270 3 18339363075444515764
12932764 1 17603582985049344144
14325111 11 18410856542628946305
14390081 3 18342455988731767352
16945 1 18266741466158813189
19973954 147 18411421695916440712
20871998 184 18129668645927828751
21040471 1 18338798896977460353
23552423 10 18261112976015897598
2748010 2 18410575080394492061
29004967 10 18262805201556750698
369184 2 18410572890061391257
5084963 1 18272084937950690297

> <PUBCHEM_SHAPE_MULTIPOLES>
179.35
3.67
1.55
0.61
1.07
0.02
0
0.18
0
-0.04
0
-0.02
0.01
0

> <PUBCHEM_SHAPE_SELFOVERLAP>
371.082

> <PUBCHEM_SHAPE_VOLUME>
103.3

> <RelativeEnergy>
0

> <StereoisomerIndex>
1

> <TautomerIndex>
1

> <POSE_NUMBER>
1

> <LibDockScore>
51.0447

> <HotSpots>
6.61,4.27,3.15,A,86,6
8.81,3.67,3.75,A,88,7
6.01,0.67,0.55,A,70,9

> <-In-Situ Starting Energy>
-15.6664502

> <-In-Situ Final Energy>
15.9651492

> <In-Situ Gradient>
0.0008435134533

$$$$
7461
  SciTegic09142310043D

 26 26  0  0  0  0            999 V2000
    8.0605    8.6315   -4.3429 C   0  0  0  1  0  0
    7.2159    8.8613   -3.1302 C   0  0  0  1  0  0
    6.9576   10.3308   -2.9085 C   0  0  0  1  0  0
    5.8383    8.2052   -1.1528 C   0  0  0  1  0  0
    6.6871    7.9136   -2.3438 C   0  0  0  1  0  0
    5.9513    9.6540   -0.7805 C   0  0  0  1  0  0
    6.4165   10.6304   -1.5578 C   0  0  0  1  0  0
    8.1137    7.2439   -5.0042 C   0  0  0  1  0  0
    9.4620    9.0316   -3.9283 C   0  0  0  1  0  0
    5.7864    9.8508    0.6626 C   0  0  0  1  0  0
    7.7148    9.3254   -5.0985 H   0  0
    7.8934   10.8516   -2.9148 H   0  0
    6.3632   10.7523   -3.7118 H   0  0
    6.1228    7.5769   -0.3161 H   0  0
    4.8181    7.9109   -1.3242 H   0  0
    6.9476    6.8798   -2.4480 H   0  0
    6.5260   11.6366   -1.1994 H   0  0
    7.3049    7.1366   -5.7171 H   0  0
    8.0550    6.4129   -4.3095 H   0  0
    9.0310    7.1237   -5.5812 H   0  0
    9.9455    8.2050   -3.4117 H   0  0
    9.5677    9.8823   -3.2643 H   0  0
    9.9714    9.2754   -4.8392 H   0  0
    6.3653    9.0639    1.1335 H   0  0
    4.7398    9.7391    0.9349 H   0  0
    6.1883   10.8056    1.0022 H   0  0
  1  2  1  0
  1  8  1  0
  1  9  1  0
  2  3  1  0
  2  5  2  0
  3  7  1  0
  4  5  1  0
  4  6  1  0
  6  7  2  0
  6 10  1  0
  1 11  1  0
  3 12  1  0
  3 13  1  0
  4 14  1  0
  4 15  1  0
  5 16  1  0
  7 17  1  0
  8 18  1  0
  8 19  1  0
  8 20  1  0
  9 21  1  0
  9 22  1  0
  9 23  1  0
 10 24  1  0
 10 25  1  0
 10 26  1  0
M  END
> <Name>
7461

> <Binding Energy>
-16.0132

> <Ligand Energy>
54.169

> <Protein Energy>
-7801.1566

> <Complex Energy>
-7763.0009

> <Complex Entropy>
-31.4757

> <Protein Entropy>
-31.4717

> <Ligand Entropy>
-17.2471

> <Entropic Energy>
17.2431

> <AbsoluteEnergy>
14.3464

> <ConfNumber>
8

> <IonizationIndex>
1

> <MOL_NUMBER>
345

> <NumberOfIonizations>
1

> <NumberOfStereoisomers>
1

> <NumberOfTautomers>
1

> <PUBCHEM_ATOM_DEF_STEREO_COUNT>
0

> <PUBCHEM_ATOM_UDEF_STEREO_COUNT>
0

> <PUBCHEM_BOND_DEF_STEREO_COUNT>
0

> <PUBCHEM_BOND_UDEF_STEREO_COUNT>
0

> <PUBCHEM_CACTVS_TAUTO_COUNT>
1

> <PUBCHEM_COMPONENT_COUNT>
1

> <PUBCHEM_COMPOUND_CID>
7461

> <PUBCHEM_CONFORMER_DIVERSEORDER>
1
2
3

> <PUBCHEM_CONFORMER_ID>
00001D2500000001

> <PUBCHEM_CONFORMER_RMSD>
0.4

> <PUBCHEM_COORDINATE_TYPE>
2
5
10

> <PUBCHEM_EFFECTIVE_ROTOR_COUNT>
1.4

> <PUBCHEM_FEATURE_SELFOVERLAP>
10.148

> <PUBCHEM_HEAVY_ATOM_COUNT>
10

> <PUBCHEM_ISOTOPIC_ATOM_COUNT>
0

> <PUBCHEM_MMFF94_ENERGY>
3.4922

> <PUBCHEM_MMFF94_PARTIAL_CHARGES>
10
1 0.14
10 0.14
16 0.15
17 0.15
2 -0.28
3 0.28
4 0.28
5 -0.29
6 -0.28
7 -0.29

> <PUBCHEM_PHARMACOPHORE_FEATURES>
2
3 1 8 9 hydrophobe
6 2 3 4 5 6 7 rings

> <PUBCHEM_SHAPE_FINGERPRINT>
10219947 1 18411700984886413174
10857977 72 18040720294039030937
12032990 46 18336555936533686842
12138202 97 16950548987808850903
124424 183 17676474030449835386
12897270 3 18408597050391489197
12932764 1 17917991654932011945
14128692 85 17845638374165918743
14325111 11 18410855486008917248
14993402 34 18201711864519903702
15310529 11 16660361489301374832
16945 1 18410573989662696262
17844478 74 17967543375815927225
19026448 4 16298105384908509086
19026448 5 16343703235918974874
193761 8 17689998259916162468
20201158 50 18259702276753758835
21040471 1 18194402414492894308
21293036 1 18335979839516288326
23235685 24 18410292514765119936
23402655 69 18194382421985011373
23552423 10 18046068155509367998
2748010 2 18121784095378864054
29004967 10 18334019371423588113
5084963 1 18130779092378400425
528886 8 18411978048683862619

> <PUBCHEM_SHAPE_MULTIPOLES>
205.8
4.97
1.27
0.93
0.73
0.11
0
-0.47
0.01
0.4
0
-0.9
-0.08
-0.01

> <PUBCHEM_SHAPE_SELFOVERLAP>
405.315

> <PUBCHEM_SHAPE_VOLUME>
120.9

> <RelativeEnergy>
2.36745

> <StereoisomerIndex>
1

> <TautomerIndex>
1

> <POSE_NUMBER>
1

> <LibDockScore>
77.4093

> <HotSpots>
7.01,11.07,-2.85,A,47,3
8.41,8.07,-4.86,A,38,8
6.21,10.67,0.94,A,74,10

> <-In-Situ Starting Energy>
-224.056961

> <-In-Situ Final Energy>
-49.9954973

> <In-Situ Gradient>
0.0009245279601

$$$$
7462
  SciTegic09142310043D

 26 26  0  0  0  0            999 V2000
    7.2178    8.4458   -3.3536 C   0  0  0  1  0  0
    7.9084    7.8761   -4.5748 C   0  0  0  1  0  0
    7.3653    9.9395   -3.1996 C   0  0  0  1  0  0
    7.3789   10.4268   -1.7523 C   0  0  0  1  0  0
    6.5894    9.5921   -0.7844 C   0  0  0  1  0  0
    6.7215    7.7535   -2.3176 C   0  0  0  1  0  0
    8.1949    6.3745   -4.6834 C   0  0  0  1  0  0
    9.2111    8.5837   -4.9458 C   0  0  0  1  0  0
    6.1225    8.4024   -1.1615 C   0  0  0  1  0  0
    6.0087   10.3736    0.3380 C   0  0  0  1  0  0
    7.1547    8.0191   -5.3218 H   0  0
    8.2903   10.2930   -3.6151 H   0  0
    6.5663   10.4231   -3.7608 H   0  0
    7.0791   11.4739   -1.7305 H   0  0
    8.4116   10.3694   -1.4162 H   0  0
    6.7181    6.6829   -2.2480 H   0  0
    7.7257    5.7690   -3.9180 H   0  0
    9.2598    6.1379   -4.6623 H   0  0
    7.8242    6.0431   -5.6413 H   0  0
    9.8046    8.6822   -4.0386 H   0  0
    9.0656    9.5801   -5.3344 H   0  0
    9.7670    8.0367   -5.7082 H   0  0
    5.3934    7.8540   -0.6042 H   0  0
    5.9537   11.4105    0.0357 H   0  0
    6.6514   10.3123    1.2082 H   0  0
    5.0290    9.9832    0.6099 H   0  0
  1  2  1  0
  1  3  1  0
  1  6  2  0
  2  7  1  0
  2  8  1  0
  3  4  1  0
  4  5  1  0
  5  9  2  0
  5 10  1  0
  6  9  1  0
  2 11  1  0
  3 12  1  0
  3 13  1  0
  4 14  1  0
  4 15  1  0
  6 16  1  0
  7 17  1  0
  7 18  1  0
  7 19  1  0
  8 20  1  0
  8 21  1  0
  8 22  1  0
  9 23  1  0
 10 24  1  0
 10 25  1  0
 10 26  1  0
M  END
> <Name>
7462

> <Binding Energy>
-12.035

> <Ligand Energy>
45.2684

> <Protein Energy>
-7801.1566

> <Complex Energy>
-7767.9232

> <Complex Entropy>
-31.4757

> <Protein Entropy>
-31.4717

> <Ligand Entropy>
-17.2569

> <Entropic Energy>
17.2529

> <AbsoluteEnergy>
12.1785

> <ConfNumber>
6

> <IonizationIndex>
1

> <MOL_NUMBER>
346

> <NumberOfIonizations>
1

> <NumberOfStereoisomers>
1

> <NumberOfTautomers>
1

> <PUBCHEM_ATOM_DEF_STEREO_COUNT>
0

> <PUBCHEM_ATOM_UDEF_STEREO_COUNT>
0

> <PUBCHEM_BOND_DEF_STEREO_COUNT>
0

> <PUBCHEM_BOND_UDEF_STEREO_COUNT>
0

> <PUBCHEM_CACTVS_TAUTO_COUNT>
1

> <PUBCHEM_COMPONENT_COUNT>
1

> <PUBCHEM_COMPOUND_CID>
7462

> <PUBCHEM_CONFORMER_DIVERSEORDER>
1
3
2

> <PUBCHEM_CONFORMER_ID>
00001D2600000001

> <PUBCHEM_CONFORMER_RMSD>
0.4

> <PUBCHEM_COORDINATE_TYPE>
2
5
10

> <PUBCHEM_EFFECTIVE_ROTOR_COUNT>
1.4

> <PUBCHEM_FEATURE_SELFOVERLAP>
10.148

> <PUBCHEM_HEAVY_ATOM_COUNT>
10

> <PUBCHEM_ISOTOPIC_ATOM_COUNT>
0

> <PUBCHEM_MMFF94_ENERGY>
11.1056

> <PUBCHEM_MMFF94_PARTIAL_CHARGES>
10
1 -0.28
10 0.14
16 0.15
2 0.14
23 0.15
3 0.14
4 0.14
5 -0.28
6 -0.15
9 -0.15

> <PUBCHEM_PHARMACOPHORE_FEATURES>
2
3 2 7 8 hydrophobe
6 1 3 4 5 6 9 rings

> <PUBCHEM_SHAPE_FINGERPRINT>
10857977 72 18410568517747799833
12897270 3 18341898476027399911
12932764 1 18060700567630726015
14325111 11 18410573955287185617
14390081 3 18201433662313462665
14993402 34 18114189639431979605
15310529 11 16298383573902955045
15775835 57 17530973513641965972
16945 1 18408886239314047123
19026448 5 16081088182164841843
193761 8 17689156033998756035
20201158 50 17846501422142921670
20645464 45 18060128860544819962
20645476 183 17604160314553720838
20653085 51 16702034032224143401
21040471 1 18337391526436269194
21293036 1 18335709355308147133
23235685 24 18408604751494652159
23402655 69 18194382413737961661
23552423 10 17825674622881095781
2748010 2 18122062271804854133
3248919 1 17821445755089693547
369184 2 18131343111710087306
5084963 1 18189618246111003946

> <PUBCHEM_SHAPE_MULTIPOLES>
205.8
4.92
1.27
0.93
0.78
0.02
-0.01
-0.37
-0.06
0.36
0.03
-0.87
-0.08
0.1

> <PUBCHEM_SHAPE_SELFOVERLAP>
406.456

> <PUBCHEM_SHAPE_VOLUME>
122.5

> <RelativeEnergy>
2.52506

> <StereoisomerIndex>
1

> <TautomerIndex>
1

> <POSE_NUMBER>
1

> <LibDockScore>
77.6595

> <HotSpots>
8.01,10.07,-2.25,A,50,3
8.41,8.07,-4.86,A,38,7
6.21,10.67,0.94,A,74,10

> <-In-Situ Starting Energy>
-143.309772

> <-In-Situ Final Energy>
-43.4150249

> <In-Situ Gradient>
0.0009944096958

$$$$
7531
  SciTegic09142310043D

 25 25  0  0  0  0            999 V2000
    6.4757    4.4351    2.3649 O   0  0  0  1  0  0
    6.9213    3.2269    1.7812 C   0  0  0  1  0  0
    5.8259    2.1669    2.0588 C   0  0  0  1  0  0
    6.0907    0.8811    1.3429 C   0  0  0  1  0  0
    8.3357    2.8516    2.3017 C   0  0  0  1  0  0
    7.0153    3.4918    0.2630 C   0  0  0  1  0  0
    5.6323    0.7271    0.0424 C   0  0  0  1  0  0
    6.8173   -0.1442    1.9417 C   0  0  0  1  0  0
    5.8769   -0.4417   -0.6427 C   0  0  0  1  0  0
    7.1125   -1.2934    1.2335 C   0  0  0  1  0  0
    6.5902   -1.4617   -0.0313 C   0  0  0  1  0  0
    6.3852    4.3595    3.3129 H   0  0
    5.6519    1.9572    3.1066 H   0  0
    4.8656    2.5400    1.7099 H   0  0
    8.6204    3.3562    3.2250 H   0  0
    9.1065    3.1070    1.5816 H   0  0
    8.4804    1.7841    2.4184 H   0  0
    7.4895    4.4430    0.0401 H   0  0
    6.0388    3.5232   -0.2133 H   0  0
    7.5952    2.7194   -0.2438 H   0  0
    5.0967    1.5223   -0.4532 H   0  0
    7.1799   -0.0604    2.9521 H   0  0
    5.5032   -0.5351   -1.6484 H   0  0
    7.7262   -2.0733    1.6596 H   0  0
    6.7064   -2.4189   -0.5063 H   0  0
  1  2  1  0
  2  3  1  0
  2  5  1  0
  2  6  1  0
  3  4  1  0
  4  7  2  0
  4  8  1  0
  7  9  1  0
  8 10  2  0
  9 11  2  0
 10 11  1  0
  1 12  1  0
  3 13  1  0
  3 14  1  0
  5 15  1  0
  5 16  1  0
  5 17  1  0
  6 18  1  0
  6 19  1  0
  6 20  1  0
  7 21  1  0
  8 22  1  0
  9 23  1  0
 10 24  1  0
 11 25  1  0
M  END
> <Name>
7531

> <Binding Energy>
-21.5762

> <Ligand Energy>
4.395

> <Protein Energy>
-7801.1566

> <Complex Energy>
-7818.3379

> <Complex Entropy>
-31.4756

> <Protein Entropy>
-31.4717

> <Ligand Entropy>
-17.4513

> <Entropic Energy>
17.4473

> <AbsoluteEnergy>
14.7699

> <ConfNumber>
1

> <IonizationIndex>
1

> <MOL_NUMBER>
348

> <NumberOfIonizations>
1

> <NumberOfStereoisomers>
1

> <NumberOfTautomers>
1

> <PUBCHEM_ATOM_DEF_STEREO_COUNT>
0

> <PUBCHEM_ATOM_UDEF_STEREO_COUNT>
0

> <PUBCHEM_BOND_DEF_STEREO_COUNT>
0

> <PUBCHEM_BOND_UDEF_STEREO_COUNT>
0

> <PUBCHEM_CACTVS_TAUTO_COUNT>
1

> <PUBCHEM_COMPONENT_COUNT>
1

> <PUBCHEM_COMPOUND_CID>
7531

> <PUBCHEM_CONFORMER_DIVERSEORDER>
1
2
3
4
5

> <PUBCHEM_CONFORMER_ID>
00001D6B00000001

> <PUBCHEM_CONFORMER_RMSD>
0.4

> <PUBCHEM_COORDINATE_TYPE>
2
5
10

> <PUBCHEM_EFFECTIVE_ROTOR_COUNT>
2

> <PUBCHEM_FEATURE_SELFOVERLAP>
20.297

> <PUBCHEM_HEAVY_ATOM_COUNT>
11

> <PUBCHEM_ISOTOPIC_ATOM_COUNT>
0

> <PUBCHEM_MMFF94_ENERGY>
28.5453

> <PUBCHEM_MMFF94_PARTIAL_CHARGES>
15
1 -0.68
10 -0.15
11 -0.15
2 0.28
20 0.15
21 0.15
22 0.4
23 0.15
24 0.15
25 0.15
3 0.14
4 -0.14
7 -0.15
8 -0.15
9 -0.15

> <PUBCHEM_PHARMACOPHORE_FEATURES>
4
1 1 acceptor
1 1 donor
3 2 5 6 hydrophobe
6 4 7 8 9 10 11 rings

> <PUBCHEM_SHAPE_FINGERPRINT>
11062470 55 16343982507282096241
12162725 195 18260830431592239444
12716758 59 18342739563957807979
12897270 3 18341619264561731740
12932764 1 17132113550099661679
13024252 1 17748827423560168867
14325111 11 18411697651707039425
15310529 11 17489866007784118509
15775835 57 17458062646788100997
16945 1 18410864260574186609
20201158 50 17988921171556921566
20279233 1 17632573855367755951
20645476 183 17967802847902313235
20653085 51 18114474370210366425
20711985 344 16197932088658103792
21028194 46 16515404075186832395
21061003 4 16988565748746996762
23402539 116 18339344323374558988
23552423 10 18335703814774299107
23559900 14 18201430334547362258
2748010 2 17692522734292351171
29004967 10 15985105218979514978
3248919 1 18412547612834107121
369184 2 16515404092509106761
5084963 1 18411700950331580553
57812782 119 18272926120507522322
8030462 33 17632308843116741904
9939556 21 18186801404573465990

> <PUBCHEM_SHAPE_MULTIPOLES>
220.51
5
1.39
0.94
1.14
0.08
-0.03
0.01
-0.43
-0.45
-0.18
0.39
0.02
-0.19

> <PUBCHEM_SHAPE_SELFOVERLAP>
447.553

> <PUBCHEM_SHAPE_VOLUME>
129.8

> <RelativeEnergy>
0

> <StereoisomerIndex>
1

> <TautomerIndex>
1

> <POSE_NUMBER>
1

> <LibDockScore>
66.6704

> <HotSpots>
6.01,1.67,2.54,A,83,3
4.81,0.47,-1.05,A,56,9
6.61,-0.93,-0.06,A,65,10

> <-In-Situ Starting Energy>
-35442.0163

> <-In-Situ Final Energy>
15.3643398

> <In-Situ Gradient>
0.0009782050142

$$$$
7590
  SciTegic09142310043D

 24 24  0  0  0  0            999 V2000
    6.5130   12.0002   -0.4329 O   0  0  0  1  0  0
    6.7504    9.9860    0.5763 O   0  0  0  1  0  0
    6.1424   10.0348   -1.7198 C   0  0  0  1  0  0
    7.1549    9.6179   -2.7413 C   0  0  0  1  0  0
    8.5033    9.8168   -2.6201 C   0  0  0  1  0  0
    6.7185    8.8869   -3.8327 C   0  0  0  1  0  0
    6.5464   10.6709   -0.4089 C   0  0  0  1  0  0
    6.8540   12.7028    0.7662 C   0  0  0  1  0  0
    9.3509    9.2122   -3.5259 C   0  0  0  1  0  0
    7.5735    8.2213   -4.6837 C   0  0  0  1  0  0
    8.9172    8.4087   -4.5557 C   0  0  0  1  0  0
    6.2273   14.0790    0.7224 C   0  0  0  1  0  0
    5.6613    9.1083   -1.4133 H   0  0
    5.4680   10.7275   -2.1908 H   0  0
    8.9104   10.3300   -1.7697 H   0  0
    5.6873    8.7800   -4.0218 H   0  0
    7.9161   12.8794    0.7939 H   0  0
    6.5739   12.1444    1.6604 H   0  0
   10.3746    9.2815   -3.3517 H   0  0
    7.1957    7.5542   -5.4404 H   0  0
    9.5945    7.9054   -5.2287 H   0  0
    5.1790   14.1081    0.9941 H   0  0
    6.3182   14.4533   -0.2961 H   0  0
    6.7453   14.7389    1.4186 H   0  0
  1  7  1  0
  1  8  1  0
  2  7  2  0
  3  4  1  0
  3  7  1  0
  4  5  2  0
  4  6  1  0
  5  9  1  0
  6 10  2  0
  8 12  1  0
  9 11  2  0
 10 11  1  0
  3 13  1  0
  3 14  1  0
  5 15  1  0
  6 16  1  0
  8 17  1  0
  8 18  1  0
  9 19  1  0
 10 20  1  0
 11 21  1  0
 12 22  1  0
 12 23  1  0
 12 24  1  0
M  END
> <Name>
7590

> <Binding Energy>
-30.0916

> <Ligand Energy>
1.0432

> <Protein Energy>
-7801.1566

> <Complex Energy>
-7830.2051

> <Complex Entropy>
-31.4767

> <Protein Entropy>
-31.4717

> <Ligand Entropy>
-17.8156

> <Entropic Energy>
17.8106

> <AbsoluteEnergy>
15.7816

> <ConfNumber>
22

> <IonizationIndex>
1

> <MOL_NUMBER>
349

> <NumberOfIonizations>
1

> <NumberOfStereoisomers>
1

> <NumberOfTautomers>
1

> <PUBCHEM_ATOM_DEF_STEREO_COUNT>
0

> <PUBCHEM_ATOM_UDEF_STEREO_COUNT>
0

> <PUBCHEM_BOND_DEF_STEREO_COUNT>
0

> <PUBCHEM_BOND_UDEF_STEREO_COUNT>
0

> <PUBCHEM_CACTVS_TAUTO_COUNT>
1

> <PUBCHEM_COMPONENT_COUNT>
1

> <PUBCHEM_COMPOUND_CID>
7590

> <PUBCHEM_CONFORMER_DIVERSEORDER>
1
16
3
11
26
8
9
28
29
14
10
18
31
30
2
17
7
4
20
25
21
6
27
23
24
22
12
15
19
13
5

> <PUBCHEM_CONFORMER_ID>
00001DA600000001

> <PUBCHEM_CONFORMER_RMSD>
0.6

> <PUBCHEM_COORDINATE_TYPE>
2
5
10

> <PUBCHEM_EFFECTIVE_ROTOR_COUNT>
4

> <PUBCHEM_FEATURE_SELFOVERLAP>
10.148

> <PUBCHEM_HEAVY_ATOM_COUNT>
12

> <PUBCHEM_ISOTOPIC_ATOM_COUNT>
0

> <PUBCHEM_MMFF94_ENERGY>
19.6691

> <PUBCHEM_MMFF94_PARTIAL_CHARGES>
16
1 -0.43
10 -0.15
11 -0.15
15 0.15
16 0.15
19 0.15
2 -0.57
20 0.15
21 0.15
3 0.2
4 -0.14
5 -0.15
6 -0.15
7 0.66
8 0.28
9 -0.15

> <PUBCHEM_PHARMACOPHORE_FEATURES>
2
1 2 acceptor
6 4 5 6 9 10 11 rings

> <PUBCHEM_SHAPE_FINGERPRINT>
11062470 55 11383832671179199168
12251169 10 18409732867551969493
124424 183 17346596365735576642
12932764 1 17749656446489774356
13024252 1 15068620475013101437
13897977 58 18409454712674928860
15219456 202 17917439670067111895
15653759 3 18202559596627503498
190213 19 18040152911663561670
19422 9 18113904878905585438
200 152 15936405663168780395
20279233 1 17489593359012615766
20645464 45 17775571939977905759
20645477 70 13912867719195598696
22485316 2 14779543487170522368
2297311 6 18271258165768863156
23402539 116 18201712969075429167
77779 3 18411420609674511940

> <PUBCHEM_SHAPE_MULTIPOLES>
235.22
8.11
1.11
0.89
8.83
0.02
0.05
0.11
0.81
-1.19
-0.02
0.18
-0.01
-0.04

> <PUBCHEM_SHAPE_SELFOVERLAP>
476.07

> <PUBCHEM_SHAPE_VOLUME>
137.5

> <RelativeEnergy>
1.81696

> <StereoisomerIndex>
1

> <TautomerIndex>
1

> <POSE_NUMBER>
1

> <LibDockScore>
85.8348

> <HotSpots>
6.61,10.07,-1.25,A,54,3
8.41,8.07,-4.86,A,38,11
6.41,14.07,-0.85,A,60,12

> <-In-Situ Starting Energy>
-4932.57941

> <-In-Situ Final Energy>
0.768750747

> <In-Situ Gradient>
0.0007811412767

$$$$
7711
  SciTegic09142310043D

 21 21  0  0  0  0            999 V2000
    8.5549    8.3505   -5.1961 O   0  0  0  1  0  0
    9.9859    9.6133   -6.3515 O   0  0  0  1  0  0
    6.7590    9.1127   -3.8259 C   0  0  0  1  0  0
    6.5253    9.5447   -2.4093 C   0  0  0  1  0  0
    7.9503    8.1682   -3.9252 C   0  0  0  1  0  0
    6.6690   10.8800   -2.0610 C   0  0  0  1  0  0
    6.1837    8.6240   -1.4266 C   0  0  0  1  0  0
    6.5525   11.2849   -0.7419 C   0  0  0  1  0  0
    6.0594    9.0277   -0.1056 C   0  0  0  1  0  0
    6.2701   10.3527    0.2377 C   0  0  0  1  0  0
    9.5070    9.2535   -5.2904 C   0  0  0  1  0  0
    6.9275    9.9938   -4.4439 H   0  0
    5.8834    8.6327   -4.2405 H   0  0
    8.6671    8.3710   -3.1274 H   0  0
    7.6704    7.1249   -3.8325 H   0  0
    6.8649   11.6091   -2.8255 H   0  0
    6.0225    7.5850   -1.6769 H   0  0
    6.7093   12.3186   -0.4682 H   0  0
    5.8292    8.3045    0.6596 H   0  0
    6.2363   10.6703    1.2681 H   0  0
    9.8194    9.6527   -4.3280 H   0  0
  1  5  1  0
  1 11  1  0
  2 11  2  0
  3  4  1  0
  3  5  1  0
  4  6  2  0
  4  7  1  0
  6  8  1  0
  7  9  2  0
  8 10  2  0
  9 10  1  0
  3 12  1  0
  3 13  1  0
  5 14  1  0
  5 15  1  0
  6 16  1  0
  7 17  1  0
  8 18  1  0
  9 19  1  0
 10 20  1  0
 11 21  1  0
M  END
> <Name>
7711

> <Binding Energy>
-17.342

> <Ligand Energy>
4.4866

> <Protein Energy>
-7801.1566

> <Complex Energy>
-7814.012

> <Complex Entropy>
-31.4762

> <Protein Entropy>
-31.4717

> <Ligand Entropy>
-17.5836

> <Entropic Energy>
17.579

> <AbsoluteEnergy>
13.3866

> <ConfNumber>
6

> <IonizationIndex>
1

> <MOL_NUMBER>
352

> <NumberOfIonizations>
1

> <NumberOfStereoisomers>
1

> <NumberOfTautomers>
1

> <PUBCHEM_ATOM_DEF_STEREO_COUNT>
0

> <PUBCHEM_ATOM_UDEF_STEREO_COUNT>
0

> <PUBCHEM_BOND_DEF_STEREO_COUNT>
0

> <PUBCHEM_BOND_UDEF_STEREO_COUNT>
0

> <PUBCHEM_CACTVS_TAUTO_COUNT>
1

> <PUBCHEM_COMPONENT_COUNT>
1

> <PUBCHEM_COMPOUND_CID>
7711

> <PUBCHEM_CONFORMER_DIVERSEORDER>
1
6
9
14
8
4
3
11
10
18
5
2
15
13
12
7
16
17

> <PUBCHEM_CONFORMER_ID>
00001E1F00000001

> <PUBCHEM_CONFORMER_RMSD>
0.6

> <PUBCHEM_COORDINATE_TYPE>
2
5
10

> <PUBCHEM_EFFECTIVE_ROTOR_COUNT>
4

> <PUBCHEM_FEATURE_SELFOVERLAP>
10.148

> <PUBCHEM_HEAVY_ATOM_COUNT>
11

> <PUBCHEM_ISOTOPIC_ATOM_COUNT>
0

> <PUBCHEM_MMFF94_ENERGY>
22.1923

> <PUBCHEM_MMFF94_PARTIAL_CHARGES>
17
1 -0.43
10 -0.15
11 0.66
16 0.15
17 0.15
18 0.15
19 0.15
2 -0.57
20 0.15
21 0.06
3 0.14
4 -0.14
5 0.28
6 -0.15
7 -0.15
8 -0.15
9 -0.15

> <PUBCHEM_PHARMACOPHORE_FEATURES>
2
1 2 acceptor
6 4 6 7 8 9 10 rings

> <PUBCHEM_SHAPE_FINGERPRINT>
10857977 72 17968676963840700407
11127187 94 9583519823796953577
12251169 10 18041000660930061644
12696612 119 18187372068425561132
12897270 3 11527942348579912268
12932764 1 18340216201772992590
15775835 57 17132112424744565600
16945 1 18115042869398560991
17846911 113 18410853244204943313
18186145 218 17060347327123083972
20361792 2 13406796631460080230
20645464 45 18409169878854217119
20645476 183 14764343808543023037
20653085 51 15625679223135700641
20671657 53 8142089775571617186
20711985 344 7997153221807477998
23402539 116 18187354455360590791
23403322 49 8069763892043566408
27216 239 18270392935822081104
369184 2 18186523181145545679

> <PUBCHEM_SHAPE_MULTIPOLES>
214.64
5.53
1.39
1.07
4.27
0.05
-0.01
-1.82
-2.15
-0.25
0.14
-0.16
0.07
0.55

> <PUBCHEM_SHAPE_SELFOVERLAP>
435.487

> <PUBCHEM_SHAPE_VOLUME>
124

> <RelativeEnergy>
1.06925

> <StereoisomerIndex>
1

> <TautomerIndex>
1

> <POSE_NUMBER>
1

> <LibDockScore>
87.5227

> <HotSpots>
10.01,10.27,-5.66,P,55,2
7.21,9.27,-3.25,A,45,3
5.81,9.67,0.14,A,68,8

> <-In-Situ Starting Energy>
-8.04476684

> <-In-Situ Final Energy>
22.2477093

> <In-Situ Gradient>
0.0009540242138

$$$$
7768
  SciTegic09142310043D

 19 19  0  0  0  0            999 V2000
    5.7002    8.5651    0.1927 O   0  0  0  1  0  0
    6.3687    7.9804   -1.8675 N   0  0  0  1  0  0
    7.1513   10.4639   -3.6946 C   0  0  0  1  0  0
    6.7400    9.0540   -4.0083 C   0  0  0  1  0  0
    7.3752   10.8077   -2.2070 C   0  0  0  1  0  0
    7.2920    8.1165   -2.9866 C   0  0  0  1  0  0
    6.3120   10.3879   -1.1956 C   0  0  0  1  0  0
    6.1190    8.8934   -0.9053 C   0  0  0  1  0  0
    5.9680    7.0878   -1.6616 H   0  0
    8.1134   10.4809   -4.1849 H   0  0
    6.5098   11.1861   -4.1988 H   0  0
    7.1148    8.7620   -4.9817 H   0  0
    5.6778    8.9845   -4.0589 H   0  0
    7.4185   11.8899   -2.1258 H   0  0
    8.3447   10.4341   -1.8768 H   0  0
    7.4774    7.1332   -3.3986 H   0  0
    8.2603    8.4632   -2.6578 H   0  0
    5.3520   10.7967   -1.4720 H   0  0
    6.5583   10.8449   -0.2363 H   0  0
  1  8  2  0
  2  6  1  0
  2  8  1  0
  3  4  1  0
  3  5  1  0
  4  6  1  0
  5  7  1  0
  7  8  1  0
  2  9  1  0
  3 10  1  0
  3 11  1  0
  4 12  1  0
  4 13  1  0
  5 14  1  0
  5 15  1  0
  6 16  1  0
  6 17  1  0
  7 18  1  0
  7 19  1  0
M  END
> <Name>
7768

> <Binding Energy>
-0.0962

> <Ligand Energy>
9.1484

> <Protein Energy>
-7801.1566

> <Complex Energy>
-7792.1045

> <Complex Entropy>
-31.475

> <Protein Entropy>
-31.4717

> <Ligand Entropy>
-16.5908

> <Entropic Energy>
16.5875

> <AbsoluteEnergy>
7.01576

> <ConfNumber>
1

> <IonizationIndex>
1

> <MOL_NUMBER>
353

> <NumberOfIonizations>
1

> <NumberOfStereoisomers>
1

> <NumberOfTautomers>
1

> <PUBCHEM_ATOM_DEF_STEREO_COUNT>
0

> <PUBCHEM_ATOM_UDEF_STEREO_COUNT>
0

> <PUBCHEM_BOND_DEF_STEREO_COUNT>
0

> <PUBCHEM_BOND_UDEF_STEREO_COUNT>
0

> <PUBCHEM_CACTVS_TAUTO_COUNT>
2

> <PUBCHEM_COMPONENT_COUNT>
1

> <PUBCHEM_COMPOUND_CID>
7768

> <PUBCHEM_CONFORMER_DIVERSEORDER>
1
2
3
4

> <PUBCHEM_CONFORMER_ID>
00001E5800000001

> <PUBCHEM_CONFORMER_RMSD>
0.4

> <PUBCHEM_COORDINATE_TYPE>
2
5
10

> <PUBCHEM_EFFECTIVE_ROTOR_COUNT>
1.2

> <PUBCHEM_FEATURE_SELFOVERLAP>
15.223

> <PUBCHEM_HEAVY_ATOM_COUNT>
8

> <PUBCHEM_ISOTOPIC_ATOM_COUNT>
0

> <PUBCHEM_MMFF94_ENERGY>
7.9831

> <PUBCHEM_MMFF94_PARTIAL_CHARGES>
6
1 -0.57
19 0.37
2 -0.73
6 0.3
7 0.06
8 0.57

> <PUBCHEM_PHARMACOPHORE_FEATURES>
3
1 1 acceptor
1 2 donor
7 2 3 4 5 6 7 8 rings

> <PUBCHEM_SHAPE_FINGERPRINT>
18185500 45 18339080367627503266
20096714 4 18409450323012415918
21040471 1 18193556894219494832
23235685 24 18338796839788514760
23552423 10 18335989657574169430
241688 4 18122350068904930912
29004967 10 18187372020953963465

> <PUBCHEM_SHAPE_MULTIPOLES>
153.79
2.5
1.68
0.71
0.61
0.02
-0.04
-0.04
0.35
-0.39
-0.1
-0.01
0.03
-0.09

> <PUBCHEM_SHAPE_SELFOVERLAP>
296.615

> <PUBCHEM_SHAPE_VOLUME>
92.2

> <RelativeEnergy>
0

> <StereoisomerIndex>
1

> <TautomerIndex>
1

> <POSE_NUMBER>
1

> <LibDockScore>
60.9132

> <HotSpots>
4.21,9.07,-0.26,P,84,1
8.01,10.07,-2.25,A,50,3
7.21,9.27,-3.25,A,45,4

> <-In-Situ Starting Energy>
-273.996439

> <-In-Situ Final Energy>
-7.78950682

> <In-Situ Gradient>
0.0005048424316

$$$$
7772
  SciTegic09142310043D

 26 25  0  0  0  0            999 V2000
    6.3168   12.0882   -0.6014 O   0  0  0  1  0  0
    6.7443   14.0791   -1.5359 O   0  0  0  1  0  0
    6.1628    9.1718   -0.9049 C   0  0  0  1  0  0
    7.3395   10.0232   -1.3410 C   0  0  0  1  0  0
    6.8249   11.3875   -1.7434 C   0  0  0  1  0  0
    5.9588    8.0016   -1.8610 C   0  0  0  1  0  0
    6.1357    8.8088    0.5564 C   0  0  0  1  0  0
    6.5070   13.3997   -0.5506 C   0  0  0  1  0  0
    6.4027   13.9746    0.8609 C   0  0  0  1  0  0
    7.2793   13.1814    1.7606 C   0  0  0  1  0  0
    5.3133    9.8378   -0.9116 H   0  0
    7.8668    9.5736   -2.1830 H   0  0
    8.0606   10.1181   -0.5460 H   0  0
    7.6176   11.9405   -2.1912 H   0  0
    6.0530   11.2680   -2.5005 H   0  0
    6.8403    7.4031   -2.0532 H   0  0
    5.7118    8.3967   -2.8398 H   0  0
    5.1879    7.3338   -1.4904 H   0  0
    6.6334    9.6019    1.1121 H   0  0
    6.5705    7.8384    0.7745 H   0  0
    5.1083    8.7911    0.9083 H   0  0
    6.9284   14.8828    1.0057 H   0  0
    5.3738   14.1212    1.1746 H   0  0
    8.2530   13.1154    1.3024 H   0  0
    6.8208   12.2083    1.9282 H   0  0
    7.4827   13.6781    2.7045 H   0  0
  1  5  1  0
  1  8  1  0
  2  8  2  0
  3  4  1  0
  3  6  1  0
  3  7  1  0
  4  5  1  0
  8  9  1  0
  9 10  1  0
  3 11  1  0
  4 12  1  0
  4 13  1  0
  5 14  1  0
  5 15  1  0
  6 16  1  0
  6 17  1  0
  6 18  1  0
  7 19  1  0
  7 20  1  0
  7 21  1  0
  9 22  1  0
  9 23  1  0
 10 24  1  0
 10 25  1  0
 10 26  1  0
M  END
> <Name>
7772

> <Binding Energy>
-3.0111

> <Ligand Energy>
0.8097

> <Protein Energy>
-7801.1566

> <Complex Energy>
-7803.358

> <Complex Entropy>
-31.4762

> <Protein Entropy>
-31.4717

> <Ligand Entropy>
-17.4737

> <Entropic Energy>
17.4692

> <AbsoluteEnergy>
8.23508

> <ConfNumber>
22

> <IonizationIndex>
1

> <MOL_NUMBER>
354

> <NumberOfIonizations>
1

> <NumberOfStereoisomers>
1

> <NumberOfTautomers>
1

> <PUBCHEM_ATOM_DEF_STEREO_COUNT>
0

> <PUBCHEM_ATOM_UDEF_STEREO_COUNT>
0

> <PUBCHEM_BOND_DEF_STEREO_COUNT>
0

> <PUBCHEM_BOND_UDEF_STEREO_COUNT>
0

> <PUBCHEM_CACTVS_TAUTO_COUNT>
1

> <PUBCHEM_COMPONENT_COUNT>
1

> <PUBCHEM_COMPOUND_CID>
7772

> <PUBCHEM_CONFORMER_DIVERSEORDER>
1
44
19
20
42
17
36
7
47
12
2
27
35
24
31
21
25
33
32
30
3
10
15
18
26
48
43
38
9
14
46
37
45
22
28
11
39
23
6
5
40
4
13
8
16
41
34
29

> <PUBCHEM_CONFORMER_ID>
00001E5C00000001

> <PUBCHEM_CONFORMER_RMSD>
0.6

> <PUBCHEM_COORDINATE_TYPE>
2
5
10

> <PUBCHEM_EFFECTIVE_ROTOR_COUNT>
5

> <PUBCHEM_FEATURE_SELFOVERLAP>
15.223

> <PUBCHEM_HEAVY_ATOM_COUNT>
10

> <PUBCHEM_ISOTOPIC_ATOM_COUNT>
0

> <PUBCHEM_MMFF94_ENERGY>
6.8729

> <PUBCHEM_MMFF94_PARTIAL_CHARGES>
5
1 -0.43
2 -0.57
5 0.28
8 0.66
9 0.06

> <PUBCHEM_PHARMACOPHORE_FEATURES>
3
1 10 hydrophobe
1 2 acceptor
3 3 6 7 hydrophobe

> <PUBCHEM_SHAPE_FINGERPRINT>
11062470 55 17240484710631734175
12162725 195 18041000622344025284
12932764 1 17775280547621132158
14325111 11 18411700950252530623
14390081 3 18202560657626902272
18186145 218 17203332195253908370
190213 19 18408322181185346847
22485316 2 17632572756241334679
23048698 100 17022904553634409964
3248919 1 18113059320098871026
522135 26 13614526255157021958

> <PUBCHEM_SHAPE_MULTIPOLES>
194.06
7.85
1
0.93
3.47
0.09
-0.09
0.51
-0.25
0.06
0.05
-1.05
0.13
-0.22

> <PUBCHEM_SHAPE_SELFOVERLAP>
353.678

> <PUBCHEM_SHAPE_VOLUME>
124.5

> <RelativeEnergy>
0.654915

> <StereoisomerIndex>
1

> <TautomerIndex>
1

> <POSE_NUMBER>
1

> <LibDockScore>
80.6503

> <HotSpots>
6.61,11.87,-1.46,A,53,5
5.81,9.67,0.14,A,68,7
7.01,13.87,1.54,A,79,9

> <-In-Situ Starting Energy>
-1826.93994

> <-In-Situ Final Energy>
-14.1939034

> <In-Situ Gradient>
0.0008056757343

$$$$
7792
  SciTegic09142310043D

 33 32  0  0  0  0            999 V2000
    6.4917   13.0066   -3.1880 O   0  0  0  1  0  0
    7.0172   10.6737   -1.0853 C   0  0  1  1  0  0
    6.7755   10.2050   -2.5223 C   0  0  0  1  0  0
    7.5297    8.9295   -2.8272 C   0  0  0  1  0  0
    7.5830    8.5842   -4.2992 C   0  0  0  1  0  0
    8.7511    7.6217   -4.5698 C   0  0  0  1  0  0
    6.6546   12.1537   -0.7977 C   0  0  0  1  0  0
    6.2788    9.7737   -0.0798 C   0  0  0  1  0  0
    6.8861   13.2872   -1.8526 C   0  0  0  1  0  0
    8.3144    6.1757   -4.7189 C   0  0  0  1  0  0
    9.4285    8.0127   -5.8302 C   0  0  0  1  0  0
    5.5519   13.0203   -3.3332 H   0  0
    8.0708   10.5065   -0.8957 H   0  0
    5.7286   10.0654   -2.7188 H   0  0
    7.1526   10.9258   -3.2334 H   0  0
    7.1525    8.0862   -2.2531 H   0  0
    8.5545    9.1438   -2.5446 H   0  0
    7.7466    9.5165   -4.8294 H   0  0
    6.6301    8.2218   -4.6778 H   0  0
    9.5197    7.7424   -3.8096 H   0  0
    7.1072   12.4554    0.1485 H   0  0
    5.6229   12.1121   -0.5504 H   0  0
    6.5525    8.7267   -0.1853 H   0  0
    5.1971    9.8407   -0.1947 H   0  0
    6.5216   10.0698    0.9397 H   0  0
    6.4154   14.2162   -1.5123 H   0  0
    7.9242   13.5494   -1.9370 H   0  0
    7.7111    6.0896   -5.6144 H   0  0
    7.7206    5.8343   -3.8783 H   0  0
    9.1796    5.5189   -4.7849 H   0  0
    9.6725    9.0567   -5.7039 H   0  0
    8.6826    7.8583   -6.5798 H   0  0
   10.3017    7.4107   -6.0817 H   0  0
  1  9  1  0
  2  3  1  0
  2  7  1  0
  2  8  1  0
  3  4  1  0
  4  5  1  0
  5  6  1  0
  6 10  1  0
  6 11  1  0
  7  9  1  0
  1 12  1  0
  2 13  1  0
  3 14  1  0
  3 15  1  0
  4 16  1  0
  4 17  1  0
  5 18  1  0
  5 19  1  0
  6 20  1  0
  7 21  1  0
  7 22  1  0
  8 23  1  0
  8 24  1  0
  8 25  1  0
  9 26  1  0
  9 27  1  0
 10 28  1  0
 10 29  1  0
 10 30  1  0
 11 31  1  0
 11 32  1  0
 11 33  1  0
M  END
> <Name>
7792

> <Binding Energy>
-18.9576

> <Ligand Energy>
22.8929

> <Protein Energy>
-7801.1566

> <Complex Energy>
-7797.2214

> <Complex Entropy>
-31.4765

> <Protein Entropy>
-31.4717

> <Ligand Entropy>
-17.9172

> <Entropic Energy>
17.9124

> <AbsoluteEnergy>
10.635

> <ConfNumber>
71

> <IonizationIndex>
1

> <MOL_NUMBER>
355

> <NumberOfIonizations>
1

> <NumberOfStereoisomers>
1

> <NumberOfTautomers>
1

> <PUBCHEM_ATOM_DEF_STEREO_COUNT>
0

> <PUBCHEM_ATOM_UDEF_STEREO_COUNT>
1

> <PUBCHEM_BOND_DEF_STEREO_COUNT>
0

> <PUBCHEM_BOND_UDEF_STEREO_COUNT>
0

> <PUBCHEM_CACTVS_TAUTO_COUNT>
1

> <PUBCHEM_COMPONENT_COUNT>
1

> <PUBCHEM_COMPOUND_CID>
7792

> <PUBCHEM_CONFORMER_DIVERSEORDER>
1
31
37
52
64
10
30
25
59
13
51
56
60
33
41
39
38
35
32
44
58
12
27
61
43
7
11
42
62
49
54
23
63
50
34
8
36
55
40
48
47
46
5
53
19
45
26
14
24
57
28
18
15
20
17
3
29
16
4
22
6
9
2
21

> <PUBCHEM_CONFORMER_ID>
00001E7000000001

> <PUBCHEM_CONFORMER_RMSD>
0.6

> <PUBCHEM_COORDINATE_TYPE>
2
5
10

> <PUBCHEM_EFFECTIVE_ROTOR_COUNT>
6

> <PUBCHEM_FEATURE_SELFOVERLAP>
31.105

> <PUBCHEM_HEAVY_ATOM_COUNT>
11

> <PUBCHEM_ISOTOPIC_ATOM_COUNT>
0

> <PUBCHEM_MMFF94_ENERGY>
10.5304

> <PUBCHEM_MMFF94_PARTIAL_CHARGES>
3
1 -0.68
33 0.4
9 0.28

> <PUBCHEM_PHARMACOPHORE_FEATURES>
6
1 1 acceptor
1 1 donor
1 8 hydrophobe
3 2 3 7 hydrophobe
3 4 5 6 hydrophobe
3 6 10 11 hydrophobe

> <PUBCHEM_SHAPE_FINGERPRINT>
12138202 97 18344144791347352191
12162725 195 18042405905710335300
12500047 106 18342173380120982934
12716758 59 18342738533092076859
12932764 1 18340215184182098642
14123255 52 18263358093135101781
14123260 362 17968105234657868540
15775835 57 18114460063684956921
1741750 31 18411417276442416841
17834072 32 18335137536422138373
18186145 218 18200320922197029360
20279233 1 18131355236867058934
20645477 56 18341054098384177777
20645477 70 17203058408827924758
20653085 51 18335711532798530881
20671657 1 18118960295831289691
20828058 34 18410576141441636513
21524375 3 18189045396579686377
22169311 21 17989209269890258270
22926399 65 18409165506709697008
22959321 105 18129945718784139026
22959321 28 15357699660560274526
23402539 116 18339915034951400607
23557571 272 18269845362020241204
23559900 14 18202567255456278658
3248919 1 17168426077364889922
42627469 27 17167579393107620576
6333449 129 18412262860971494449
6430166 295 18261671463550961496
93112 12 18342745121793169046

> <PUBCHEM_SHAPE_MULTIPOLES>
220.51
7.24
1.95
0.96
4.6
0.19
0
-3.14
1.14
-2.2
0.34
0.23
0.08
0.72

> <PUBCHEM_SHAPE_SELFOVERLAP>
394.474

> <PUBCHEM_SHAPE_VOLUME>
144

> <RelativeEnergy>
2.36053

> <StereoisomerIndex>
1

> <TautomerIndex>
1

> <POSE_NUMBER>
1

> <LibDockScore>
81.3197

> <HotSpots>
8.01,10.07,-2.25,A,50,4
6.41,14.07,-0.85,A,60,9
8.41,8.07,-4.86,A,38,10

> <-In-Situ Starting Energy>
-562.432393

> <-In-Situ Final Energy>
-15.7600299

> <In-Situ Gradient>
0.0009598095339

$$$$
7803
  SciTegic09142310043D

 20 19  0  0  0  0            999 V2000
    7.3771   10.7870   -2.8005 O   0  0  0  1  0  0
    6.4324   11.8725   -1.0882 O   0  0  0  1  0  0
    7.1884    8.9087   -4.3214 C   0  0  0  1  0  0
    8.0430    9.6166   -3.2889 C   0  0  0  1  0  0
    7.9434    7.7348   -4.9660 C   0  0  0  1  0  0
    6.6339    9.5016   -0.8439 C   0  0  0  1  0  0
    6.8084   10.8237   -1.5948 C   0  0  0  1  0  0
    5.6189    9.6136    0.2806 C   0  0  0  1  0  0
    6.8990    9.6475   -5.0563 H   0  0
    6.2612    8.5724   -3.8633 H   0  0
    8.2834    8.9219   -2.5047 H   0  0
    8.9974    9.9100   -3.7200 H   0  0
    8.1654    6.9653   -4.2360 H   0  0
    8.8843    8.0612   -5.4096 H   0  0
    7.3638    7.2463   -5.7444 H   0  0
    7.5942    9.2738   -0.4022 H   0  0
    6.3396    8.7036   -1.5245 H   0  0
    4.6224    9.8234   -0.0947 H   0  0
    5.9066   10.4055    0.9720 H   0  0
    5.5731    8.6744    0.8267 H   0  0
  1  4  1  0
  1  7  1  0
  2  7  2  0
  3  4  1  0
  3  5  1  0
  6  7  1  0
  6  8  1  0
  3  9  1  0
  3 10  1  0
  4 11  1  0
  4 12  1  0
  5 13  1  0
  5 14  1  0
  5 15  1  0
  6 16  1  0
  6 17  1  0
  8 18  1  0
  8 19  1  0
  8 20  1  0
M  END
> <Name>
7803

> <Binding Energy>
-3.8232

> <Ligand Energy>
-10.6128

> <Protein Energy>
-7801.1566

> <Complex Energy>
-7815.5926

> <Complex Entropy>
-31.4752

> <Protein Entropy>
-31.4717

> <Ligand Entropy>
-16.8774

> <Entropic Energy>
16.8739

> <AbsoluteEnergy>
12.2169

> <ConfNumber>
74

> <IonizationIndex>
1

> <MOL_NUMBER>
356

> <NumberOfIonizations>
1

> <NumberOfStereoisomers>
1

> <NumberOfTautomers>
1

> <PUBCHEM_ATOM_DEF_STEREO_COUNT>
0

> <PUBCHEM_ATOM_UDEF_STEREO_COUNT>
0

> <PUBCHEM_BOND_DEF_STEREO_COUNT>
0

> <PUBCHEM_BOND_UDEF_STEREO_COUNT>
0

> <PUBCHEM_CACTVS_TAUTO_COUNT>
1

> <PUBCHEM_COMPONENT_COUNT>
1

> <PUBCHEM_COMPOUND_CID>
7803

> <PUBCHEM_CONFORMER_DIVERSEORDER>
1
33
22
32
13
17
26
23
30
21
15
24
20
4
10
14
9
27
16
11
25
29
19
2
18
12
3
6
31
7
28
5
8

> <PUBCHEM_CONFORMER_ID>
00001E7B00000001

> <PUBCHEM_CONFORMER_RMSD>
0.6

> <PUBCHEM_COORDINATE_TYPE>
2
5
10

> <PUBCHEM_EFFECTIVE_ROTOR_COUNT>
4

> <PUBCHEM_FEATURE_SELFOVERLAP>
15.223

> <PUBCHEM_HEAVY_ATOM_COUNT>
8

> <PUBCHEM_ISOTOPIC_ATOM_COUNT>
0

> <PUBCHEM_MMFF94_ENERGY>
0.5847

> <PUBCHEM_MMFF94_PARTIAL_CHARGES>
5
1 -0.43
2 -0.57
4 0.28
6 0.06
7 0.66

> <PUBCHEM_PHARMACOPHORE_FEATURES>
3
1 2 acceptor
1 5 hydrophobe
1 8 hydrophobe

> <PUBCHEM_SHAPE_FINGERPRINT>
11062470 55 13326853327000149841
12932764 1 16950831592277291532
14325111 11 18410573955292466849
14390081 3 18344143691698587288
23235685 24 18341608204962863717
3248919 1 16773528745254960132
5460574 1 9223229650225702785

> <PUBCHEM_SHAPE_MULTIPOLES>
152.9
6.28
0.97
0.59
2.01
0.16
0
-0.47
0.04
-0.24
0
0.01
-0.01
0

> <PUBCHEM_SHAPE_SELFOVERLAP>
273.831

> <PUBCHEM_SHAPE_VOLUME>
99.6

> <RelativeEnergy>
8.00499

> <StereoisomerIndex>
1

> <TautomerIndex>
1

> <POSE_NUMBER>
1

> <LibDockScore>
70.5961

> <HotSpots>
5.01,10.27,-0.85,P,81,2
7.21,9.27,-3.25,A,45,3
8.01,10.07,-2.25,A,50,4

> <-In-Situ Starting Energy>
-53.4523735

> <-In-Situ Final Energy>
29.3436258

> <In-Situ Gradient>
0.0009804590086

$$$$
7896
  SciTegic09142310043D

 16 15  0  0  0  0            999 V2000
    6.3980   11.4480    0.1954 O   0  0  0  1  0  0
    8.4686    9.5323   -3.7516 O   0  0  0  1  0  0
    6.2265   10.4374   -0.7817 C   0  0  1  1  0  0
    7.4562   10.3471   -1.6991 C   0  0  0  1  0  0
    7.3245    9.4174   -2.9141 C   0  0  0  1  0  0
    5.7897    9.1124   -0.1445 C   0  0  0  1  0  0
    7.0975   11.1997    0.8092 H   0  0
    9.2328    9.1537   -3.3238 H   0  0
    5.4034   10.7745   -1.4016 H   0  0
    8.3335   10.0794   -1.1177 H   0  0
    7.6289   11.3440   -2.0945 H   0  0
    7.1586    8.3759   -2.6167 H   0  0
    6.4573    9.7067   -3.5103 H   0  0
    4.9075    9.2689    0.4763 H   0  0
    6.5573    8.6755    0.4846 H   0  0
    5.5314    8.3706   -0.9004 H   0  0
  1  3  1  0
  2  5  1  0
  3  4  1  0
  3  6  1  0
  4  5  1  0
  1  7  1  0
  2  8  1  0
  3  9  1  0
  4 10  1  0
  4 11  1  0
  5 12  1  0
  5 13  1  0
  6 14  1  0
  6 15  1  0
  6 16  1  0
M  END
> <Name>
7896

> <Binding Energy>
-45.7127

> <Ligand Energy>
9.5587

> <Protein Energy>
-7801.1566

> <Complex Energy>
-7837.3107

> <Complex Entropy>
-31.4744

> <Protein Entropy>
-31.4717

> <Ligand Entropy>
-16.1491

> <Entropic Energy>
16.1464

> <AbsoluteEnergy>
2.306

> <ConfNumber>
2

> <IonizationIndex>
1

> <MOL_NUMBER>
357

> <NumberOfIonizations>
1

> <NumberOfStereoisomers>
1

> <NumberOfTautomers>
1

> <PUBCHEM_ATOM_DEF_STEREO_COUNT>
0

> <PUBCHEM_ATOM_UDEF_STEREO_COUNT>
1

> <PUBCHEM_BOND_DEF_STEREO_COUNT>
0

> <PUBCHEM_BOND_UDEF_STEREO_COUNT>
0

> <PUBCHEM_CACTVS_TAUTO_COUNT>
1

> <PUBCHEM_COMPONENT_COUNT>
1

> <PUBCHEM_COMPOUND_CID>
7896

> <PUBCHEM_CONFORMER_DIVERSEORDER>
4
10
15
13
6
12
7
2
3
14
9
5
11
8
1

> <PUBCHEM_CONFORMER_ID>
00001ED800000004

> <PUBCHEM_CONFORMER_RMSD>
0.4

> <PUBCHEM_COORDINATE_TYPE>
2
5
10

> <PUBCHEM_EFFECTIVE_ROTOR_COUNT>
2

> <PUBCHEM_FEATURE_SELFOVERLAP>
20.297

> <PUBCHEM_HEAVY_ATOM_COUNT>
6

> <PUBCHEM_ISOTOPIC_ATOM_COUNT>
0

> <PUBCHEM_MMFF94_ENERGY>
4.7185

> <PUBCHEM_MMFF94_PARTIAL_CHARGES>
6
1 -0.68
15 0.4
16 0.4
2 -0.68
3 0.28
5 0.28

> <PUBCHEM_PHARMACOPHORE_FEATURES>
4
1 1 acceptor
1 1 donor
1 2 acceptor
1 2 donor

> <PUBCHEM_SHAPE_FINGERPRINT>
139733 1 9294991479856795367
14390081 3 18131349747540366545
20096714 4 18271243927693748788
21040471 1 18265897037128782358
23552449 11 18042109982268540234
24536 1 17095534971454873005
29004967 10 18040721372023197921
5460574 1 8718835283916498261

> <PUBCHEM_SHAPE_MULTIPOLES>
111.74
3.24
1.03
0.63
1.21
0.23
-0.03
-0.58
0.13
-0.45
0.08
-0.02
0
-0.09

> <PUBCHEM_SHAPE_SELFOVERLAP>
192.891

> <PUBCHEM_SHAPE_VOLUME>
75.2

> <RelativeEnergy>
0.347259

> <StereoisomerIndex>
1

> <TautomerIndex>
1

> <POSE_NUMBER>
1

> <LibDockScore>
54.3927

> <HotSpots>
6.61,11.87,-1.46,A,53,3
8.01,10.07,-2.25,A,50,5
6.41,11.47,-0.06,A,67,6

> <-In-Situ Starting Energy>
-21.149912

> <-In-Situ Final Energy>
29.8788541

> <In-Situ Gradient>
0.000955396614

$$$$
7975
  SciTegic09142310043D

 14 14  0  0  0  0            999 V2000
    6.3492    1.3616    2.9767 N   0  0  0  1  0  0
    6.8937    2.1727    2.0650 C   0  0  0  1  0  0
    7.5390    1.7006    0.9273 C   0  0  0  1  0  0
    6.7830    3.6426    2.3314 C   0  0  0  1  0  0
    7.6181    0.3315    0.7208 C   0  0  0  1  0  0
    7.0621   -0.5161    1.6661 C   0  0  0  1  0  0
    6.4415    0.0411    2.7776 C   0  0  0  1  0  0
    7.9774    2.3852    0.2156 H   0  0
    6.7456    4.1902    1.3922 H   0  0
    7.6422    3.9840    2.9082 H   0  0
    5.8792    3.8665    2.8987 H   0  0
    8.1094   -0.0676   -0.1551 H   0  0
    7.1207   -1.5873    1.5365 H   0  0
    6.0166   -0.6172    3.5233 H   0  0
  1  2  2  0
  1  7  1  0
  2  3  1  0
  2  4  1  0
  3  5  2  0
  5  6  1  0
  6  7  2  0
  3  8  1  0
  4  9  1  0
  4 10  1  0
  4 11  1  0
  5 12  1  0
  6 13  1  0
  7 14  1  0
M  END
> <Name>
7975

> <Binding Energy>
-43.0886

> <Ligand Energy>
-4.143

> <Protein Energy>
-7801.1566

> <Complex Energy>
-7848.3882

> <Complex Entropy>
-31.4741

> <Protein Entropy>
-31.4717

> <Ligand Entropy>
-16.0457

> <Entropic Energy>
16.0432

> <AbsoluteEnergy>
13.3966

> <ConfNumber>
1

> <Ionization pH>
7.5

> <IonizationIndex>
1

> <MOL_NUMBER>
358

> <NumberOfIonizations>
1

> <NumberOfStereoisomers>
1

> <NumberOfTautomers>
1

> <PUBCHEM_ATOM_DEF_STEREO_COUNT>
0

> <PUBCHEM_ATOM_UDEF_STEREO_COUNT>
0

> <PUBCHEM_BOND_DEF_STEREO_COUNT>
0

> <PUBCHEM_BOND_UDEF_STEREO_COUNT>
0

> <PUBCHEM_CACTVS_TAUTO_COUNT>
1

> <PUBCHEM_COMPONENT_COUNT>
1

> <PUBCHEM_COMPOUND_CID>
7975

> <PUBCHEM_CONFORMER_DIVERSEORDER>
1

> <PUBCHEM_CONFORMER_ID>
00001F2700000001

> <PUBCHEM_CONFORMER_RMSD>
0.4

> <PUBCHEM_COORDINATE_TYPE>
2
5
10

> <PUBCHEM_EFFECTIVE_ROTOR_COUNT>
0

> <PUBCHEM_FEATURE_SELFOVERLAP>
10.148

> <PUBCHEM_HEAVY_ATOM_COUNT>
7

> <PUBCHEM_ISOTOPIC_ATOM_COUNT>
0

> <PUBCHEM_MMFF94_ENERGY>
15.2813

> <PUBCHEM_MMFF94_PARTIAL_CHARGES>
11
1 -0.62
12 0.15
13 0.15
14 0.15
2 0.17
3 -0.15
4 0.14
5 -0.15
6 -0.15
7 0.16
8 0.15

> <PUBCHEM_PHARMACOPHORE_FEATURES>
2
1 1 acceptor
6 1 2 3 5 6 7 rings

> <PUBCHEM_SHAPE_FINGERPRINT>
16714656 1 18410579487168120180
18185500 45 18335980968897579534
20096714 4 18194965145181301041
21040471 1 18266459802108673920
23552423 10 18260554394345007182
29004967 10 18186811287208857241

> <PUBCHEM_SHAPE_MULTIPOLES>
139.08
2.45
1.4
0.6
1.07
0.01
0
-0.03
0
-0.34
0
0
0.01
0

> <PUBCHEM_SHAPE_SELFOVERLAP>
283.274

> <PUBCHEM_SHAPE_VOLUME>
80.8

> <RelativeEnergy>
0

> <StereoisomerIndex>
1

> <TautomerIndex>
1

> <POSE_NUMBER>
1

> <LibDockScore>
46.4572

> <HotSpots>
6.01,1.67,2.54,A,83,4
4.81,0.47,-1.05,A,56,5
6.61,-0.93,-0.06,A,65,7

> <-In-Situ Starting Energy>
-5.60120073

> <-In-Situ Final Energy>
25.7114699

> <In-Situ Gradient>
0.0008482778235

$$$$
7997
  SciTegic09142310043D

 17 16  0  0  0  0            999 V2000
    7.1269   11.1190   -2.1419 O   0  0  0  1  0  0
    6.1780   12.2406   -0.4708 O   0  0  0  1  0  0
    6.9776    9.4150   -3.8538 C   0  0  0  1  0  0
    7.7238    9.9134   -2.6229 C   0  0  0  1  0  0
    7.6986    8.2270   -4.4930 C   0  0  0  1  0  0
    6.5037   11.1698   -0.9631 C   0  0  0  1  0  0
    6.1550    9.8609   -0.2451 C   0  0  0  1  0  0
    6.8503   10.2226   -4.5708 H   0  0
    5.9766    9.1144   -3.5556 H   0  0
    8.7692   10.1199   -2.8505 H   0  0
    7.7234    9.1291   -1.8775 H   0  0
    7.8831    7.4557   -3.7526 H   0  0
    8.6545    8.5212   -4.9268 H   0  0
    7.0947    7.7631   -5.2668 H   0  0
    7.0493    9.4525    0.2092 H   0  0
    5.7301    9.1319   -0.9327 H   0  0
    5.4290   10.0532    0.5426 H   0  0
  1  4  1  0
  1  6  1  0
  2  6  2  0
  3  4  1  0
  3  5  1  0
  6  7  1  0
  3  8  1  0
  3  9  1  0
  4 10  1  0
  4 11  1  0
  5 12  1  0
  5 13  1  0
  5 14  1  0
  7 15  1  0
  7 16  1  0
  7 17  1  0
M  END
> <Name>
7997

> <Binding Energy>
-32.9038

> <Ligand Energy>
-12.2827

> <Protein Energy>
-7801.1566

> <Complex Energy>
-7846.3431

> <Complex Entropy>
-31.4748

> <Protein Entropy>
-31.4717

> <Ligand Entropy>
-16.4531

> <Entropic Energy>
16.45

> <AbsoluteEnergy>
11.4089

> <ConfNumber>
15

> <IonizationIndex>
1

> <MOL_NUMBER>
359

> <NumberOfIonizations>
1

> <NumberOfStereoisomers>
1

> <NumberOfTautomers>
1

> <PUBCHEM_ATOM_DEF_STEREO_COUNT>
0

> <PUBCHEM_ATOM_UDEF_STEREO_COUNT>
0

> <PUBCHEM_BOND_DEF_STEREO_COUNT>
0

> <PUBCHEM_BOND_UDEF_STEREO_COUNT>
0

> <PUBCHEM_CACTVS_TAUTO_COUNT>
1

> <PUBCHEM_COMPONENT_COUNT>
1

> <PUBCHEM_COMPOUND_CID>
7997

> <PUBCHEM_CONFORMER_DIVERSEORDER>
1
26
30
31
27
13
12
22
10
23
24
9
29
11
8
25
16
28
17
18
19
7
6
4
2
5
3
15
20
21
14

> <PUBCHEM_CONFORMER_ID>
00001F3D00000001

> <PUBCHEM_CONFORMER_RMSD>
0.4

> <PUBCHEM_COORDINATE_TYPE>
2
5
10

> <PUBCHEM_EFFECTIVE_ROTOR_COUNT>
3

> <PUBCHEM_FEATURE_SELFOVERLAP>
10.148

> <PUBCHEM_HEAVY_ATOM_COUNT>
7

> <PUBCHEM_ISOTOPIC_ATOM_COUNT>
0

> <PUBCHEM_MMFF94_ENERGY>
1.9805

> <PUBCHEM_MMFF94_PARTIAL_CHARGES>
5
1 -0.43
2 -0.57
4 0.28
6 0.66
7 0.06

> <PUBCHEM_PHARMACOPHORE_FEATURES>
2
1 2 acceptor
1 5 hydrophobe

> <PUBCHEM_SHAPE_FINGERPRINT>
11062470 55 14405180655949299699
12932741 1 17821734969776663803
12932764 1 17313094259517355091
14325111 11 18410856590079178467
14390081 3 18411698824623624697
29004967 10 18412545388378800930
3248919 1 17132123445983951559
5460574 1 9223232944629071171

> <PUBCHEM_SHAPE_MULTIPOLES>
132.32
4.88
1.01
0.59
2.12
0.16
0
-0.38
0.01
-0.5
0
0.03
-0.01
0

> <PUBCHEM_SHAPE_SELFOVERLAP>
235.286

> <PUBCHEM_SHAPE_VOLUME>
86.6

> <RelativeEnergy>
7.69306

> <StereoisomerIndex>
1

> <TautomerIndex>
1

> <POSE_NUMBER>
1

> <LibDockScore>
58.3267

> <HotSpots>
5.01,10.27,-0.85,P,81,2
7.21,9.27,-3.25,A,45,3
8.01,10.07,-2.25,A,50,4

> <-In-Situ Starting Energy>
-160.557799

> <-In-Situ Final Energy>
31.8572093

> <In-Situ Gradient>
0.0009552400015

$$$$
8025
  SciTegic09142310043D

 11 10  0  0  0  0            999 V2000
    6.1624   11.2177   -0.8728 O   0  0  0  1  0  0
    6.5774   11.9412   -2.9420 O   0  0  0  1  0  0
    6.5049   10.2608    0.1287 C   0  0  0  1  0  0
    5.5824    9.0569    0.0263 C   0  0  0  1  0  0
    6.7149   11.0903   -2.0741 C   0  0  0  1  0  0
    6.4264   10.7394    1.1043 H   0  0
    7.5337    9.9331   -0.0055 H   0  0
    5.6397    8.5880   -0.9555 H   0  0
    4.5509    9.3538    0.2094 H   0  0
    5.8671    8.3075    0.7597 H   0  0
    7.2905   10.1736   -2.2080 H   0  0
  1  3  1  0
  1  5  1  0
  2  5  2  0
  3  4  1  0
  3  6  1  0
  3  7  1  0
  4  8  1  0
  4  9  1  0
  4 10  1  0
  5 11  1  0
M  END
> <Name>
8025

> <Binding Energy>
-47.3924

> <Ligand Energy>
-3.5931

> <Protein Energy>
-7801.1566

> <Complex Energy>
-7852.1422

> <Complex Entropy>
-31.4739

> <Protein Entropy>
-31.4717

> <Ligand Entropy>
-15.4115

> <Entropic Energy>
15.4092

> <AbsoluteEnergy>
2.92796

> <ConfNumber>
3

> <IonizationIndex>
1

> <MOL_NUMBER>
360

> <NumberOfIonizations>
1

> <NumberOfStereoisomers>
1

> <NumberOfTautomers>
1

> <PUBCHEM_ATOM_DEF_STEREO_COUNT>
0

> <PUBCHEM_ATOM_UDEF_STEREO_COUNT>
0

> <PUBCHEM_BOND_DEF_STEREO_COUNT>
0

> <PUBCHEM_BOND_UDEF_STEREO_COUNT>
0

> <PUBCHEM_CACTVS_TAUTO_COUNT>
1

> <PUBCHEM_COMPONENT_COUNT>
1

> <PUBCHEM_COMPOUND_CID>
8025

> <PUBCHEM_CONFORMER_DIVERSEORDER>
1
2
3

> <PUBCHEM_CONFORMER_ID>
00001F5900000001

> <PUBCHEM_CONFORMER_RMSD>
0.4

> <PUBCHEM_COORDINATE_TYPE>
2
5
10

> <PUBCHEM_EFFECTIVE_ROTOR_COUNT>
2

> <PUBCHEM_FEATURE_SELFOVERLAP>
5.074

> <PUBCHEM_HEAVY_ATOM_COUNT>
5

> <PUBCHEM_ISOTOPIC_ATOM_COUNT>
0

> <PUBCHEM_MMFF94_ENERGY>
2.7115

> <PUBCHEM_MMFF94_PARTIAL_CHARGES>
5
1 -0.43
11 0.06
2 -0.57
3 0.28
5 0.66

> <PUBCHEM_PHARMACOPHORE_FEATURES>
1
1 2 acceptor

> <PUBCHEM_SHAPE_FINGERPRINT>
139733 1 18410856538449854662
16714656 1 10231757798931188082
20096714 4 9511456723426212158
5460574 1 18410856538354844164

> <PUBCHEM_SHAPE_MULTIPOLES>
91.16
2.89
0.81
0.58
0.65
0
0
0.26
0
-0.14
0
0.04
0
0

> <PUBCHEM_SHAPE_SELFOVERLAP>
156.648

> <PUBCHEM_SHAPE_VOLUME>
60.8

> <RelativeEnergy>
1.28715

> <StereoisomerIndex>
1

> <TautomerIndex>
1

> <POSE_NUMBER>
1

> <LibDockScore>
44.5154

> <HotSpots>
6.61,11.87,-1.46,A,53,3
6.41,11.47,-0.06,A,67,4
8.01,10.07,-2.25,A,50,5

> <-In-Situ Starting Energy>
3.95822802

> <-In-Situ Final Energy>
31.914684

> <In-Situ Gradient>
0.0008466982689

$$$$
8038
  SciTegic09142310043D

 20 19  0  0  0  0            999 V2000
    6.2014   11.6312   -0.4786 O   0  0  0  1  0  0
    6.9015   13.5653   -1.3554 O   0  0  0  1  0  0
    6.8288    9.4559   -1.2385 C   0  0  0  1  0  0
    6.4996   10.8777   -1.6484 C   0  0  0  1  0  0
    5.9221    8.9584   -0.1041 C   0  0  0  1  0  0
    6.8295    8.5412   -2.4742 C   0  0  0  1  0  0
    6.6542   12.8587   -0.3892 C   0  0  0  1  0  0
    6.8132   13.2894    1.0567 C   0  0  0  1  0  0
    7.8243    9.5140   -0.8150 H   0  0
    7.3186   11.3147   -2.2227 H   0  0
    5.6252   10.8654   -2.2806 H   0  0
    4.8667    9.1129   -0.3044 H   0  0
    6.1513    9.5068    0.8067 H   0  0
    6.0720    7.9017    0.1091 H   0  0
    7.7005    8.7347   -3.1005 H   0  0
    5.9495    8.7091   -3.0896 H   0  0
    6.8333    7.4855   -2.2114 H   0  0
    6.4792   12.4572    1.6687 H   0  0
    6.2396   14.1940    1.2565 H   0  0
    7.8500   13.4189    1.3451 H   0  0
  1  4  1  0
  1  7  1  0
  2  7  2  0
  3  4  1  0
  3  5  1  0
  3  6  1  0
  7  8  1  0
  3  9  1  0
  4 10  1  0
  4 11  1  0
  5 12  1  0
  5 13  1  0
  5 14  1  0
  6 15  1  0
  6 16  1  0
  6 17  1  0
  8 18  1  0
  8 19  1  0
  8 20  1  0
M  END
> <Name>
8038

> <Binding Energy>
-15.7023

> <Ligand Energy>
-18.8642

> <Protein Energy>
-7801.1566

> <Complex Energy>
-7835.7232

> <Complex Entropy>
-31.4753

> <Protein Entropy>
-31.4717

> <Ligand Entropy>
-16.8208

> <Entropic Energy>
16.8172

> <AbsoluteEnergy>
6.71769

> <ConfNumber>
4

> <IonizationIndex>
1

> <MOL_NUMBER>
361

> <NumberOfIonizations>
1

> <NumberOfStereoisomers>
1

> <NumberOfTautomers>
1

> <PUBCHEM_ATOM_DEF_STEREO_COUNT>
0

> <PUBCHEM_ATOM_UDEF_STEREO_COUNT>
0

> <PUBCHEM_BOND_DEF_STEREO_COUNT>
0

> <PUBCHEM_BOND_UDEF_STEREO_COUNT>
0

> <PUBCHEM_CACTVS_TAUTO_COUNT>
1

> <PUBCHEM_COMPONENT_COUNT>
1

> <PUBCHEM_COMPOUND_CID>
8038

> <PUBCHEM_CONFORMER_DIVERSEORDER>
1
3
2
4

> <PUBCHEM_CONFORMER_ID>
00001F6600000001

> <PUBCHEM_CONFORMER_RMSD>
0.6

> <PUBCHEM_COORDINATE_TYPE>
2
5
10

> <PUBCHEM_EFFECTIVE_ROTOR_COUNT>
3

> <PUBCHEM_FEATURE_SELFOVERLAP>
10.148

> <PUBCHEM_HEAVY_ATOM_COUNT>
8

> <PUBCHEM_ISOTOPIC_ATOM_COUNT>
0

> <PUBCHEM_MMFF94_ENERGY>
6.5423

> <PUBCHEM_MMFF94_PARTIAL_CHARGES>
5
1 -0.43
2 -0.57
4 0.28
7 0.66
8 0.06

> <PUBCHEM_PHARMACOPHORE_FEATURES>
2
1 2 acceptor
3 3 5 6 hydrophobe

> <PUBCHEM_SHAPE_FINGERPRINT>
10857977 72 18191017005174130113
12932741 1 18410292527365172278
12932764 1 17845657069868394652
14325111 11 18410854377801677981
14390081 3 18413383250498814161
19973954 147 18410013277261051377
20201158 50 18342739563805151990
23552423 10 18113621217669260198
29004967 10 18343304803049637800
3248919 1 18261664969338792444
5460574 1 9151174259437354565

> <PUBCHEM_SHAPE_MULTIPOLES>
152.9
4.84
1.26
0.68
0.5
0.15
-0.01
0.1
0.14
-0.18
-0.17
-0.05
0.03
0.45

> <PUBCHEM_SHAPE_SELFOVERLAP>
276.373

> <PUBCHEM_SHAPE_VOLUME>
99.3

> <RelativeEnergy>
1.51127

> <StereoisomerIndex>
1

> <TautomerIndex>
1

> <POSE_NUMBER>
1

> <LibDockScore>
69.9661

> <HotSpots>
6.61,11.87,-1.46,A,53,4
8.01,10.07,-2.25,A,50,6
7.01,13.87,1.54,A,79,8

> <-In-Situ Starting Energy>
-139.856502

> <-In-Situ Final Energy>
26.4839113

> <In-Situ Gradient>
0.0009932022061

$$$$
8073
  SciTegic09142310043D

 14 13  0  0  0  0            999 V2000
    6.9425   12.2344   -2.0544 O   0  0  0  1  0  0
    6.3224   13.3870   -0.2360 O   0  0  0  1  0  0
    6.7787    9.7818   -2.2710 C   0  0  0  1  0  0
    6.6674   11.0071   -1.3512 C   0  0  0  1  0  0
    8.1131    9.6554   -3.0092 C   0  0  0  1  0  0
    6.8221   13.3664   -1.3543 C   0  0  0  1  0  0
    5.9777    9.7851   -3.0060 H   0  0
    6.6239    8.8896   -1.6633 H   0  0
    5.6652   11.0434   -0.9206 H   0  0
    7.3571   10.9015   -0.5133 H   0  0
    8.9523    9.9802   -2.3931 H   0  0
    8.0939   10.2435   -3.9227 H   0  0
    8.2927    8.6220   -3.3062 H   0  0
    7.1834   14.2432   -1.8953 H   0  0
  1  4  1  0
  1  6  1  0
  2  6  2  0
  3  4  1  0
  3  5  1  0
  3  7  1  0
  3  8  1  0
  4  9  1  0
  4 10  1  0
  5 11  1  0
  5 12  1  0
  5 13  1  0
  6 14  1  0
M  END
> <Name>
8073

> <Binding Energy>
-29.6842

> <Ligand Energy>
-9.4838

> <Protein Energy>
-7801.1566

> <Complex Energy>
-7840.3247

> <Complex Entropy>
-31.4744

> <Protein Entropy>
-31.4717

> <Ligand Entropy>
-15.9742

> <Entropic Energy>
15.9714

> <AbsoluteEnergy>
2.41569

> <ConfNumber>
4

> <IonizationIndex>
1

> <MOL_NUMBER>
362

> <NumberOfIonizations>
1

> <NumberOfStereoisomers>
1

> <NumberOfTautomers>
1

> <PUBCHEM_ATOM_DEF_STEREO_COUNT>
0

> <PUBCHEM_ATOM_UDEF_STEREO_COUNT>
0

> <PUBCHEM_BOND_DEF_STEREO_COUNT>
0

> <PUBCHEM_BOND_UDEF_STEREO_COUNT>
0

> <PUBCHEM_CACTVS_TAUTO_COUNT>
1

> <PUBCHEM_COMPONENT_COUNT>
1

> <PUBCHEM_COMPOUND_CID>
8073

> <PUBCHEM_CONFORMER_DIVERSEORDER>
1
14
13
11
12
15
3
2
4
9
10
8
5
6
7

> <PUBCHEM_CONFORMER_ID>
00001F8900000001

> <PUBCHEM_CONFORMER_RMSD>
0.4

> <PUBCHEM_COORDINATE_TYPE>
2
5
10

> <PUBCHEM_EFFECTIVE_ROTOR_COUNT>
3

> <PUBCHEM_FEATURE_SELFOVERLAP>
10.148

> <PUBCHEM_HEAVY_ATOM_COUNT>
6

> <PUBCHEM_ISOTOPIC_ATOM_COUNT>
0

> <PUBCHEM_MMFF94_ENERGY>
2.3899

> <PUBCHEM_MMFF94_PARTIAL_CHARGES>
5
1 -0.43
14 0.06
2 -0.57
4 0.28
6 0.66

> <PUBCHEM_PHARMACOPHORE_FEATURES>
2
1 2 acceptor
1 5 hydrophobe

> <PUBCHEM_SHAPE_FINGERPRINT>
14390081 3 18342736329826536417
16714656 1 17060620005732543693
20096714 4 18411981398969278440
21040471 1 18338517546707827554
29004967 10 9007059062866509694
5460574 1 9295288339664823075

> <PUBCHEM_SHAPE_MULTIPOLES>
111.74
4.07
0.88
0.58
0.76
0.02
0
0.83
0.01
-0.11
0
0.05
0
0

> <PUBCHEM_SHAPE_SELFOVERLAP>
194.649

> <PUBCHEM_SHAPE_VOLUME>
73.8

> <RelativeEnergy>
0.718623

> <StereoisomerIndex>
1

> <TautomerIndex>
1

> <POSE_NUMBER>
1

> <LibDockScore>
51.6392

> <HotSpots>
6.21,14.47,-1.25,P,80,2
6.61,11.87,-1.46,A,53,4
8.01,10.07,-2.25,A,50,5

> <-In-Situ Starting Energy>
13.199781

> <-In-Situ Final Energy>
29.4816179

> <In-Situ Gradient>
0.0008665755572

$$$$
8105
  SciTegic09142310043D

 19 18  0  0  0  0            999 V2000
    9.7854    9.6632   -4.9751 O   0  0  0  1  0  0
    6.4265   11.5130    0.3893 O   0  0  0  1  0  0
    6.8900    9.1765   -2.5602 C   0  0  0  1  0  0
    7.6296    9.3470   -3.8881 C   0  0  0  1  0  0
    7.1950   10.2962   -1.5554 C   0  0  0  1  0  0
    9.1600    9.2777   -3.7628 C   0  0  0  1  0  0
    6.2569   10.3127   -0.3441 C   0  0  0  1  0  0
    9.5592    9.0328   -5.6530 H   0  0
    7.1920   11.4456    0.9669 H   0  0
    7.0952    8.1981   -2.1341 H   0  0
    5.8304    9.1806   -2.7857 H   0  0
    7.2745    8.5864   -4.5847 H   0  0
    7.3352   10.3055   -4.3119 H   0  0
    7.1177   11.2576   -2.0628 H   0  0
    8.2230   10.2037   -1.2123 H   0  0
    9.4976    8.2855   -3.4499 H   0  0
    9.5146    9.9603   -2.9911 H   0  0
    5.2211   10.3063   -0.6741 H   0  0
    6.3806    9.4213    0.2835 H   0  0
  1  6  1  0
  2  7  1  0
  3  4  1  0
  3  5  1  0
  4  6  1  0
  5  7  1  0
  1  8  1  0
  2  9  1  0
  3 10  1  0
  3 11  1  0
  4 12  1  0
  4 13  1  0
  5 14  1  0
  5 15  1  0
  6 16  1  0
  6 17  1  0
  7 18  1  0
  7 19  1  0
M  END
> <Name>
8105

> <Binding Energy>
-44.9718

> <Ligand Energy>
7.8922

> <Protein Energy>
-7801.1566

> <Complex Energy>
-7838.2363

> <Complex Entropy>
-31.4749

> <Protein Entropy>
-31.4717

> <Ligand Entropy>
-16.6617

> <Entropic Energy>
16.6586

> <AbsoluteEnergy>
2.43286

> <ConfNumber>
5

> <IonizationIndex>
1

> <MOL_NUMBER>
365

> <NumberOfIonizations>
1

> <NumberOfStereoisomers>
1

> <NumberOfTautomers>
1

> <PUBCHEM_ATOM_DEF_STEREO_COUNT>
0

> <PUBCHEM_ATOM_UDEF_STEREO_COUNT>
0

> <PUBCHEM_BOND_DEF_STEREO_COUNT>
0

> <PUBCHEM_BOND_UDEF_STEREO_COUNT>
0

> <PUBCHEM_CACTVS_TAUTO_COUNT>
1

> <PUBCHEM_COMPONENT_COUNT>
1

> <PUBCHEM_COMPOUND_CID>
8105

> <PUBCHEM_CONFORMER_DIVERSEORDER>
1
22
16
11
19
5
20
2
15
17
7
21
4
6
3
9
8
10
12
14
18
13

> <PUBCHEM_CONFORMER_ID>
00001FA900000001

> <PUBCHEM_CONFORMER_RMSD>
0.6

> <PUBCHEM_COORDINATE_TYPE>
2
5
10

> <PUBCHEM_EFFECTIVE_ROTOR_COUNT>
4

> <PUBCHEM_FEATURE_SELFOVERLAP>
20.297

> <PUBCHEM_HEAVY_ATOM_COUNT>
7

> <PUBCHEM_ISOTOPIC_ATOM_COUNT>
0

> <PUBCHEM_MMFF94_ENERGY>
1.2363

> <PUBCHEM_MMFF94_PARTIAL_CHARGES>
6
1 -0.68
18 0.4
19 0.4
2 -0.68
6 0.28
7 0.28

> <PUBCHEM_PHARMACOPHORE_FEATURES>
4
1 1 acceptor
1 1 donor
1 2 acceptor
1 2 donor

> <PUBCHEM_SHAPE_FINGERPRINT>
11062470 55 18410856563934776353
14325111 11 18410856559645246222
14390081 3 18412260627472520961
5460574 1 9295289439044601542

> <PUBCHEM_SHAPE_MULTIPOLES>
132.32
6.06
0.77
0.59
0.06
0.04
0
-0.5
-0.04
-0.01
0
0
0.01
0.01

> <PUBCHEM_SHAPE_SELFOVERLAP>
227.871

> <PUBCHEM_SHAPE_VOLUME>
88.5

> <RelativeEnergy>
1.04995

> <StereoisomerIndex>
1

> <TautomerIndex>
1

> <POSE_NUMBER>
1

> <LibDockScore>
60.2611

> <HotSpots>
7.21,9.27,-3.25,A,45,4
8.61,9.67,-3.85,A,41,6
6.41,11.47,-0.06,A,67,7

> <-In-Situ Starting Energy>
-118.681676

> <-In-Situ Final Energy>
33.9743661

> <In-Situ Gradient>
0.0008943692737

$$$$
8274
  SciTegic09142310043D

 30 31  0  0  0  0            999 V2000
    5.9001    3.3393    1.6833 O   0  0  0  1  0  0
    8.0765   -0.8222    0.7044 O   0  0  0  1  0  0
    5.1880   -0.2729    4.3427 O   0  0  0  1  0  0
    5.5582    1.4991    2.9134 N   0  0  0  1  0  0
    6.7759   -0.4675    2.6446 N   0  0  0  1  0  0
    7.1931    1.4354    1.0728 C   0  0  2  1  0  0
    8.3842    2.3918    1.2573 C   0  0  0  1  0  0
    6.7657    1.3341   -0.3862 C   0  0  0  1  0  0
    6.1349    2.1668    1.9046 C   0  0  0  1  0  0
    7.4215   -0.0127    1.5599 C   0  0  0  1  0  0
    7.5468    1.8411   -1.4318 C   0  0  0  1  0  0
    5.6387    0.5872   -0.7236 C   0  0  0  1  0  0
    8.9417    2.6220    2.6367 C   0  0  0  1  0  0
    5.8568    0.2541    3.3140 C   0  0  0  1  0  0
    7.2449    1.5640   -2.7548 C   0  0  0  1  0  0
    5.3131    0.3419   -2.0468 C   0  0  0  1  0  0
    6.1280    0.8091   -3.0654 C   0  0  0  1  0  0
    8.5978    3.6409    3.4414 C   0  0  0  1  0  0
    7.9180   -1.7442    0.8791 H   0  0
    4.8662   -1.1319    4.1321 H   0  0
    9.1789    2.0272    0.6453 H   0  0
    8.1157    3.3573    0.8293 H   0  0
    8.4370    2.4230   -1.2573 H   0  0
    5.0541    0.1265    0.0513 H   0  0
    9.7839    2.0057    2.8830 H   0  0
    7.8956    1.9281   -3.5343 H   0  0
    4.4565   -0.2672   -2.2940 H   0  0
    5.8906    0.5787   -4.0936 H   0  0
    7.7774    4.2934    3.2036 H   0  0
    9.1221    3.8564    4.3503 H   0  0
  1  9  2  0
  2 10  1  0
  3 14  1  0
  4  9  1  0
  4 14  2  0
  5 10  2  0
  5 14  1  0
  6  7  1  0
  6  8  1  0
  6  9  1  0
  6 10  1  0
  7 13  1  0
  8 11  2  0
  8 12  1  0
 11 15  1  0
 12 16  2  0
 13 18  2  0
 15 17  2  0
 16 17  1  0
  2 19  1  0
  3 20  1  0
  7 21  1  0
  7 22  1  0
 11 23  1  0
 12 24  1  0
 13 25  1  0
 15 26  1  0
 16 27  1  0
 17 28  1  0
 18 29  1  0
 18 30  1  0
M  END
> <Name>
8274

> <Binding Energy>
-48.7188

> <Ligand Energy>
54.6932

> <Protein Energy>
-7801.1566

> <Complex Energy>
-7795.1822

> <Complex Entropy>
-31.4781

> <Protein Entropy>
-31.4717

> <Ligand Entropy>
-18.6796

> <Entropic Energy>
18.6731

> <AbsoluteEnergy>
36.9093

> <ConfNumber>
4

> <Ionization pH>
7.78_P

> <IonizationIndex>
1

> <MOL_NUMBER>
373

> <NumberOfIonizations>
2

> <NumberOfStereoisomers>
2

> <NumberOfTautomers>
8

> <PUBCHEM_ATOM_DEF_STEREO_COUNT>
0

> <PUBCHEM_ATOM_UDEF_STEREO_COUNT>
0

> <PUBCHEM_BOND_DEF_STEREO_COUNT>
0

> <PUBCHEM_BOND_UDEF_STEREO_COUNT>
0

> <PUBCHEM_CACTVS_TAUTO_COUNT>
5

> <PUBCHEM_COMPONENT_COUNT>
1

> <PUBCHEM_COMPOUND_CID>
8274

> <PUBCHEM_CONFORMER_DIVERSEORDER>
1
7
4
3
6
2
5

> <PUBCHEM_CONFORMER_ID>
205200000001

> <PUBCHEM_CONFORMER_RMSD>
0.6

> <PUBCHEM_COORDINATE_TYPE>
2
5
10

> <PUBCHEM_EFFECTIVE_ROTOR_COUNT>
3.6

> <PUBCHEM_FEATURE_SELFOVERLAP>
40.638

> <PUBCHEM_HEAVY_ATOM_COUNT>
18

> <PUBCHEM_ISOTOPIC_ATOM_COUNT>
0

> <PUBCHEM_MMFF94_ENERGY>
57.2404

> <PUBCHEM_MMFF94_PARTIAL_CHARGES>
28
1 -0.57
10 0.57
11 -0.15
12 -0.15
13 -0.29
14 0.69
15 -0.15
16 -0.15
17 -0.15
18 -0.3
2 -0.57
21 0.37
22 0.37
23 0.15
24 0.15
25 0.15
26 0.15
27 0.15
28 0.15
29 0.15
3 -0.57
30 0.15
4 -0.49
5 -0.49
6 0.27
7 0.14
8 -0.14
9 0.57

> <PUBCHEM_PHARMACOPHORE_FEATURES>
8
1 1 acceptor
1 18 hydrophobe
1 2 acceptor
1 3 acceptor
1 4 donor
1 5 donor
6 4 5 6 9 10 14 rings
6 8 11 12 15 16 17 rings

> <PUBCHEM_SHAPE_FINGERPRINT>
10702982 57 18121492458435866409
10863032 1 18268990877865180396
10922049 32 18050010995648462065
10948715 1 18049442539383398005
11315181 36 14273724201928157156
11578080 2 16987130912038115185
12138202 97 18266182733815933780
12423570 1 14756204956895777297
12507560 14 17399790506623143242
12592029 89 17692254036806403577
13024252 1 16009038258484875881
14178342 30 18336531730361556202
14817 1 11231520301779921457
15906896 17 18200870661026298717
16945 1 18409729547526438305
200 152 18336540633670712758
21296965 67 18267866270917710043
21501502 16 18333733494659254328
21524375 3 17755022999278079736
23419403 2 17322071939124761228
2748010 2 18202280286778689476
298252 57 17978505334730111945
3060560 45 17687737251476895301
68419 9 17753016480904338785
69090 78 18265617584971281793
74978 22 18267585711211885262
81228 2 18113620109615359105

> <PUBCHEM_SHAPE_MULTIPOLES>
342.86
4.98
2.72
1.44
4.75
0.1
0.16
0.03
-0.41
-3.02
-0.14
-0.71
-0.05
0.24

> <PUBCHEM_SHAPE_SELFOVERLAP>
740.186

> <PUBCHEM_SHAPE_VOLUME>
186.1

> <RelativeEnergy>
0.639781

> <StereoisomerIndex>
2

> <TautomerIndex>
7

> <POSE_NUMBER>
1

> <LibDockScore>
102.6134

> <HotSpots>
7.61,2.87,-1.05,A,58,11
7.21,1.27,-2.85,A,46,17
8.81,3.67,3.75,A,88,18

> <-In-Situ Starting Energy>
-958.394034

> <-In-Situ Final Energy>
-6.98279892

> <In-Situ Gradient>
0.0009831982062

$$$$
8275
  SciTegic09142310043D

 31 31  0  0  0  0            999 V2000
    8.2204    0.1226    0.7317 O   0  0  0  1  0  0
    3.9348    2.0174    0.7777 O   0  0  0  1  0  0
    5.6690    0.1136    4.5647 O   0  0  0  1  0  0
    6.9840    0.1893    2.6137 N   0  0  0  1  0  0
    4.9613    1.3258    2.6881 N   0  5  0  1  0  0
    6.3713    1.6915    0.7309 C   0  0  2  1  0  0
    6.1889    1.4467   -0.8053 C   0  0  1  1  0  0
    7.0622    3.0529    1.0146 C   0  0  0  1  0  0
    7.4474    1.7720   -1.6502 C   0  0  0  1  0  0
    7.2797    0.5873    1.3557 C   0  0  0  1  0  0
    4.9669    1.7084    1.3915 C   0  0  0  1  0  0
    5.6432    0.0377   -1.1156 C   0  0  0  1  0  0
    7.3519    1.3120   -3.1102 C   0  0  0  1  0  0
    6.9420    3.5915    2.4235 C   0  0  0  1  0  0
    5.8882    0.5565    3.3023 C   0  0  0  1  0  0
    7.9528    3.7229    3.2985 C   0  0  0  1  0  0
    6.4142    0.1537    5.1744 H   0  0
    5.4314    2.1472   -1.1639 H   0  0
    6.6461    3.7978    0.3388 H   0  0
    8.1183    2.9913    0.7443 H   0  0
    7.6146    2.8494   -1.6391 H   0  0
    8.3441    1.3316   -1.2207 H   0  0
    4.7795   -0.2131   -0.5067 H   0  0
    6.3972   -0.7310   -0.9475 H   0  0
    5.3206   -0.0393   -2.1537 H   0  0
    6.4074    1.6176   -3.5579 H   0  0
    7.4145    0.2260   -3.1834 H   0  0
    8.1682    1.7256   -3.7020 H   0  0
    5.9738    3.9715    2.7003 H   0  0
    8.9485    3.3839    3.0737 H   0  0
    7.7948    4.1897    4.2552 H   0  0
  1 10  2  0
  2 11  2  0
  3 15  1  0
  4 10  1  0
  4 15  2  0
  5 11  1  0
  5 15  1  0
  6  7  1  0
  6  8  1  0
  6 10  1  0
  6 11  1  0
  7  9  1  0
  7 12  1  0
  8 14  1  0
  9 13  1  0
 14 16  2  0
  3 17  1  0
  7 18  1  0
  8 19  1  0
  8 20  1  0
  9 21  1  0
  9 22  1  0
 12 23  1  0
 12 24  1  0
 12 25  1  0
 13 26  1  0
 13 27  1  0
 13 28  1  0
 14 29  1  0
 16 30  1  0
 16 31  1  0
M  CHG  1   5  -1
M  END
> <Name>
8275

> <Binding Energy>
-87.0276

> <Ligand Energy>
41.174

> <Protein Energy>
-7801.1566

> <Complex Energy>
-7847.0102

> <Complex Entropy>
-31.4775

> <Protein Entropy>
-31.4717

> <Ligand Entropy>
-18.4223

> <Entropic Energy>
18.4165

> <AbsoluteEnergy>
29.8482

> <ConfNumber>
9

> <Ionization pH>
7.91_D

> <IonizationIndex>
2

> <MOL_NUMBER>
393

> <NumberOfIonizations>
2

> <NumberOfStereoisomers>
2

> <NumberOfTautomers>
3

> <PUBCHEM_ATOM_DEF_STEREO_COUNT>
0

> <PUBCHEM_ATOM_UDEF_STEREO_COUNT>
1

> <PUBCHEM_BOND_DEF_STEREO_COUNT>
0

> <PUBCHEM_BOND_UDEF_STEREO_COUNT>
0

> <PUBCHEM_CACTVS_TAUTO_COUNT>
5

> <PUBCHEM_COMPONENT_COUNT>
1

> <PUBCHEM_COMPOUND_CID>
8275

> <PUBCHEM_CONFORMER_DIVERSEORDER>
1
7
16
12
18
8
4
9
14
20
13
5
10
6
11
17
19
2
3
15

> <PUBCHEM_CONFORMER_ID>
205300000001

> <PUBCHEM_CONFORMER_RMSD>
0.6

> <PUBCHEM_COORDINATE_TYPE>
2
5
10

> <PUBCHEM_EFFECTIVE_ROTOR_COUNT>
4.6

> <PUBCHEM_FEATURE_SELFOVERLAP>
45.713

> <PUBCHEM_HEAVY_ATOM_COUNT>
16

> <PUBCHEM_ISOTOPIC_ATOM_COUNT>
0

> <PUBCHEM_MMFF94_ENERGY>
49.1737

> <PUBCHEM_MMFF94_PARTIAL_CHARGES>
17
1 -0.57
10 0.57
11 0.57
14 -0.29
15 0.69
16 -0.3
2 -0.57
28 0.37
29 0.37
3 -0.57
30 0.15
31 0.15
32 0.15
4 -0.49
5 -0.49
6 0.12
8 0.14

> <PUBCHEM_PHARMACOPHORE_FEATURES>
9
1 1 acceptor
1 12 hydrophobe
1 13 hydrophobe
1 16 hydrophobe
1 2 acceptor
1 3 acceptor
1 4 donor
1 5 donor
6 4 5 6 10 11 15 rings

> <PUBCHEM_SHAPE_FINGERPRINT>
1 1 18268716012932711693
10702982 57 18341041990892332740
12138202 97 17988086706756279988
12423570 1 12159669803703260175
12725867 57 17405991751987378965
13024252 1 15937790008279469532
13132413 78 16977328443526909120
13380537 58 18341622567317937404
14617773 55 17901933464050142616
14817 1 11109776197983921221
15906896 17 18117287066714047955
16945 1 17679325184196271184
20473742 2 18122908620595706214
20511035 2 18041289789380329392
21524375 3 18334573559644186768
23419403 2 16602448966331444834
430814 3 18411971447377319800
576247 118 17185308738785149055
5845 1 9765316898880691419
7364860 26 18052543170948101793
81228 2 17768264757197990587

> <PUBCHEM_SHAPE_MULTIPOLES>
301.7
3.4
3.04
1.68
4.07
0.6
-0.02
-0.79
0.43
-3.39
-0.43
0.04
0.12
0.37

> <PUBCHEM_SHAPE_SELFOVERLAP>
619.325

> <PUBCHEM_SHAPE_VOLUME>
171.3

> <RelativeEnergy>
2.62848

> <StereoisomerIndex>
2

> <TautomerIndex>
3

> <POSE_NUMBER>
1

> <LibDockScore>
93.5347

> <HotSpots>
5.81,-0.73,4.54,P,96,3
7.81,2.67,0.94,A,73,8
7.21,1.27,-2.85,A,46,13

> <-In-Situ Starting Energy>
-253.760375

> <-In-Situ Final Energy>
35.1722904

> <In-Situ Gradient>
0.0007349094659

$$$$
8631
  SciTegic09142310043D

 14 14  0  0  0  0            999 V2000
    6.7151    2.5724   -1.4801 I   0  0  0  1  0  0
    7.4240   -1.9052    0.8063 I   0  0  0  1  0  0
    3.4191    2.0196    0.5939 O   0  5  0  1  0  0
    6.4411    2.8043    3.4937 O   0  5  0  1  0  0
    6.5372    3.9030    1.6727 O   0  0  0  1  0  0
    5.4865    1.8081    1.6321 C   0  0  0  1  0  0
    4.6786    1.9879    0.5045 C   0  0  0  1  0  0
    6.1536    0.5920    1.7579 C   0  0  0  1  0  0
    5.2382    1.4219   -0.6393 C   0  0  0  1  0  0
    6.1956   -0.2825    0.6859 C   0  0  0  1  0  0
    5.6729    0.1125   -0.5385 C   0  0  0  1  0  0
    6.1575    2.9268    2.3120 C   0  0  0  1  0  0
    6.7627    0.3882    2.6235 H   0  0
    5.9254   -0.4578   -1.4199 H   0  0
  1  9  1  0
  2 10  1  0
  3  7  1  0
  4 12  1  0
  5 12  2  0
  6  7  2  0
  6  8  1  0
  6 12  1  0
  7  9  1  0
  8 10  2  0
  9 11  2  0
 10 11  1  0
  8 13  1  0
 11 14  1  0
M  CHG  2   3  -1   4  -1
M  END
> <Name>
8631

> <Binding Energy>
-233.3379

> <Ligand Energy>
167.8426

> <Protein Energy>
-7801.1566

> <Complex Energy>
-7866.652

> <Complex Entropy>
-31.4818

> <Protein Entropy>
-31.4717

> <Ligand Entropy>
-19.3761

> <Entropic Energy>
19.3659

> <AbsoluteEnergy>
12.8985

> <ConfNumber>
1

> <Ionization pH>
6.73_DD

> <IonizationIndex>
2

> <MOL_NUMBER>
400

> <NumberOfIonizations>
2

> <NumberOfStereoisomers>
1

> <NumberOfTautomers>
1

> <PUBCHEM_ATOM_DEF_STEREO_COUNT>
0

> <PUBCHEM_ATOM_UDEF_STEREO_COUNT>
0

> <PUBCHEM_BOND_DEF_STEREO_COUNT>
0

> <PUBCHEM_BOND_UDEF_STEREO_COUNT>
0

> <PUBCHEM_CACTVS_TAUTO_COUNT>
4

> <PUBCHEM_COMPONENT_COUNT>
1

> <PUBCHEM_COMPOUND_CID>
8631

> <PUBCHEM_CONFORMER_DIVERSEORDER>
2
3
1

> <PUBCHEM_CONFORMER_ID>
000021B700000002

> <PUBCHEM_CONFORMER_RMSD>
0.4

> <PUBCHEM_COORDINATE_TYPE>
2
5
10

> <PUBCHEM_EFFECTIVE_ROTOR_COUNT>
1

> <PUBCHEM_FEATURE_SELFOVERLAP>
35.578

> <PUBCHEM_HEAVY_ATOM_COUNT>
12

> <PUBCHEM_ISOTOPIC_ATOM_COUNT>
0

> <PUBCHEM_MMFF94_ENERGY>
33.7756

> <PUBCHEM_MMFF94_PARTIAL_CHARGES>
16
1 -0.08
10 0.08
11 -0.15
12 0.63
13 0.15
14 0.15
15 0.45
16 0.5
2 -0.08
3 -0.53
4 -0.65
5 -0.57
6 0.09
7 0.08
8 -0.15
9 0.08

> <PUBCHEM_PHARMACOPHORE_FEATURES>
7
1 1 hydrophobe
1 2 hydrophobe
1 3 donor
1 4 acceptor
1 5 acceptor
3 4 5 12 anion
6 6 7 8 9 10 11 rings

> <PUBCHEM_SHAPE_FINGERPRINT>
1 1 18267304420612819942
12138202 78 18410851049297099156
13380535 76 17764026165890429860
14648413 74 18408601465670610481
14817 1 12573523244830962548
15042514 8 17040072611922051330
16945 1 18411421721680709904
17990270 104 18409726261686773746
193761 8 18339081488788378624
19591789 44 17978237389401393918
20510252 161 16973917724619828386
20645476 183 17465106337994524404
20645477 70 18337100276599867903
20711985 344 17617373979250927554
20871998 184 17184195479035441922
21040471 1 17834675272511326116
21501502 16 18268434529429512772
21524375 3 17830729116784249104
2334 1 17835238226933573686
23402539 116 17477750295863196596
23552423 10 18410015454729946518
23559900 14 17548973361525955158
241688 4 18050567339936485464
2748010 2 17977390752335997886
3071541 12 18411985775557095652
7364860 26 18412262852650520172
81228 2 17692819185856933322

> <PUBCHEM_SHAPE_MULTIPOLES>
253.22
4.07
3.82
0.69
0.53
3.68
0
-3.59
-0.23
1.57
0.24
0.07
-0.01
0.18

> <PUBCHEM_SHAPE_SELFOVERLAP>
491.511

> <PUBCHEM_SHAPE_VOLUME>
159.4

> <RelativeEnergy>
0

> <StereoisomerIndex>
1

> <TautomerIndex>
1

> <POSE_NUMBER>
1

> <LibDockScore>
60.5048

> <HotSpots>
7.21,1.27,-2.85,A,46,1
7.01,-0.53,1.54,A,78,8
6.01,1.67,2.54,A,83,12

> <-In-Situ Starting Energy>
-809.475731

> <-In-Situ Final Energy>
51.2366008

> <In-Situ Gradient>
0.000991903517

$$$$
8635
  SciTegic09142310043D

 20 20  0  0  0  0            999 V2000
    6.1844    0.7553   -2.5870 O   0  0  0  1  0  0
    4.2509    0.4347   -1.3963 O   0  0  0  1  0  0
    7.1295    3.1108   -1.4938 N   0  0  0  1  0  0
    6.3197    1.1170   -0.3812 C   0  0  0  1  0  0
    7.1852    2.2091   -0.4747 C   0  0  0  1  0  0
    6.3605    0.2969    0.7429 C   0  0  0  1  0  0
    8.1409    2.3909    0.5066 C   0  0  0  1  0  0
    7.2888    0.5249    1.7489 C   0  0  0  1  0  0
    8.1927    1.5686    1.6173 C   0  0  0  1  0  0
    5.4397    0.7459   -1.4870 C   0  0  0  1  0  0
    5.7531    0.1222   -3.7818 C   0  0  0  1  0  0
    6.4812    2.9776   -2.2519 H   0  0
    7.7199    3.9152   -1.5189 H   0  0
    5.7038   -0.5548    0.8149 H   0  0
    8.8812    3.1535    0.3831 H   0  0
    7.3320   -0.1368    2.6024 H   0  0
    8.9627    1.7498    2.3494 H   0  0
    5.6601    0.8782   -4.5552 H   0  0
    4.8093   -0.4086   -3.6590 H   0  0
    6.5200   -0.5769   -4.1044 H   0  0
  1 10  1  0
  1 11  1  0
  2 10  2  0
  3  5  1  0
  4  5  2  0
  4  6  1  0
  4 10  1  0
  5  7  1  0
  6  8  2  0
  7  9  2  0
  8  9  1  0
  3 12  1  0
  3 13  1  0
  6 14  1  0
  7 15  1  0
  8 16  1  0
  9 17  1  0
 11 18  1  0
 11 19  1  0
 11 20  1  0
M  END
> <Name>
8635

> <Binding Energy>
-36.0559

> <Ligand Energy>
17.9425

> <Protein Energy>
-7801.1566

> <Complex Energy>
-7819.2701

> <Complex Entropy>
-31.4756

> <Protein Entropy>
-31.4717

> <Ligand Entropy>
-17.414

> <Entropic Energy>
17.41

> <AbsoluteEnergy>
23.7344

> <ConfNumber>
1

> <Ionization pH>
7.5

> <IonizationIndex>
1

> <MOL_NUMBER>
401

> <NumberOfIonizations>
1

> <NumberOfStereoisomers>
1

> <NumberOfTautomers>
2

> <PUBCHEM_ATOM_DEF_STEREO_COUNT>
0

> <PUBCHEM_ATOM_UDEF_STEREO_COUNT>
0

> <PUBCHEM_BOND_DEF_STEREO_COUNT>
0

> <PUBCHEM_BOND_UDEF_STEREO_COUNT>
0

> <PUBCHEM_CACTVS_TAUTO_COUNT>
2

> <PUBCHEM_COMPONENT_COUNT>
1

> <PUBCHEM_COMPOUND_CID>
8635

> <PUBCHEM_CONFORMER_DIVERSEORDER>
1
6
4
3
5
2

> <PUBCHEM_CONFORMER_ID>
000021BB00000001

> <PUBCHEM_CONFORMER_RMSD>
0.4

> <PUBCHEM_COORDINATE_TYPE>
2
5
10

> <PUBCHEM_EFFECTIVE_ROTOR_COUNT>
2

> <PUBCHEM_FEATURE_SELFOVERLAP>
20.297

> <PUBCHEM_HEAVY_ATOM_COUNT>
11

> <PUBCHEM_ISOTOPIC_ATOM_COUNT>
0

> <PUBCHEM_MMFF94_ENERGY>
43.1026

> <PUBCHEM_MMFF94_PARTIAL_CHARGES>
17
1 -0.43
10 0.63
11 0.28
12 0.15
13 0.15
14 0.15
15 0.15
16 0.4
17 0.4
2 -0.57
3 -0.9
4 0.09
5 0.1
6 -0.15
7 -0.15
8 -0.15
9 -0.15

> <PUBCHEM_PHARMACOPHORE_FEATURES>
4
1 2 acceptor
1 3 cation
1 3 donor
6 4 5 6 7 8 9 rings

> <PUBCHEM_SHAPE_FINGERPRINT>
12716758 59 18343305889887347114
12897270 3 18411701023409470948
13024252 1 14345789470212566053
13380535 76 18411980252266102302
14325111 11 18410575041724195808
15775835 57 18336271158336852344
16945 1 18339073908038920641
20645464 45 17631995533900384570
20871998 184 18129668645832792287
21040471 1 18413101740940539787
23402539 116 18271798059910415861
23552423 10 18265050219770354979
23559900 14 18272655680177923668
241688 4 16466147809746459307
2748010 2 18338800005063101197
369184 2 16008742528554128737
5084963 1 18058444292545403963
528886 8 18411414008030372129
6333449 129 18341893038641130952
7364860 26 18270115696047140194

> <PUBCHEM_SHAPE_MULTIPOLES>
209.66
4.32
1.84
0.65
2.75
0.51
-0.01
-1.2
0.37
-0.51
0
0.05
0
-0.31

> <PUBCHEM_SHAPE_SELFOVERLAP>
436.855

> <PUBCHEM_SHAPE_VOLUME>
119.9

> <RelativeEnergy>
0

> <StereoisomerIndex>
1

> <TautomerIndex>
1

> <POSE_NUMBER>
1

> <LibDockScore>
50.7237

> <HotSpots>
6.01,0.67,0.55,A,70,6
7.81,2.67,0.94,A,73,7
6.41,0.47,-4.25,A,40,11

> <-In-Situ Starting Energy>
-166.857407

> <-In-Situ Final Energy>
20.1178697

> <In-Situ Gradient>
0.0008760540224

$$$$
8658
  SciTegic09142310043D

 18 18  0  0  0  0            999 V2000
    6.6006   12.2181   -2.8524 O   0  0  0  1  0  0
    7.1132    8.5242   -4.4360 O   0  0  0  1  0  0
    6.6276   11.1285   -1.9793 C   0  0  0  1  0  0
    6.6021    9.8366   -2.5034 C   0  0  0  1  0  0
    6.5609   11.3043   -0.6025 C   0  0  0  1  0  0
    6.3837    8.7548   -1.6605 C   0  0  0  1  0  0
    6.3631   10.2241    0.2274 C   0  0  0  1  0  0
    6.2235    8.9529   -0.2970 C   0  0  0  1  0  0
    6.7754    9.5926   -3.9361 C   0  0  0  1  0  0
    6.8433   13.5152   -2.3041 C   0  0  0  1  0  0
    6.6600   12.2708   -0.1350 H   0  0
    6.3281    7.7528   -2.0628 H   0  0
    6.3500   10.4087    1.2851 H   0  0
    6.0481    8.1126    0.3588 H   0  0
    6.5598   10.4700   -4.5390 H   0  0
    6.1598   13.8201   -1.5148 H   0  0
    6.7648   14.2551   -3.0878 H   0  0
    7.8459   13.5833   -1.9207 H   0  0
  1  3  1  0
  1 10  1  0
  2  9  2  0
  3  4  2  0
  3  5  1  0
  4  6  1  0
  4  9  1  0
  5  7  2  0
  6  8  2  0
  7  8  1  0
  5 11  1  0
  6 12  1  0
  7 13  1  0
  8 14  1  0
  9 15  1  0
 10 16  1  0
 10 17  1  0
 10 18  1  0
M  END
> <Name>
8658

> <Binding Energy>
-23.1571

> <Ligand Energy>
11.0299

> <Protein Energy>
-7801.1566

> <Complex Energy>
-7813.2838

> <Complex Entropy>
-31.4758

> <Protein Entropy>
-31.4717

> <Ligand Entropy>
-17.2161

> <Entropic Energy>
17.2119

> <AbsoluteEnergy>
20.8105

> <ConfNumber>
2

> <IonizationIndex>
1

> <MOL_NUMBER>
403

> <NumberOfIonizations>
1

> <NumberOfStereoisomers>
1

> <NumberOfTautomers>
1

> <PUBCHEM_ATOM_DEF_STEREO_COUNT>
0

> <PUBCHEM_ATOM_UDEF_STEREO_COUNT>
0

> <PUBCHEM_BOND_DEF_STEREO_COUNT>
0

> <PUBCHEM_BOND_UDEF_STEREO_COUNT>
0

> <PUBCHEM_CACTVS_TAUTO_COUNT>
1

> <PUBCHEM_COMPONENT_COUNT>
1

> <PUBCHEM_COMPOUND_CID>
8658

> <PUBCHEM_CONFORMER_DIVERSEORDER>
5
3
2
4
1
6

> <PUBCHEM_CONFORMER_ID>
000021D200000005

> <PUBCHEM_CONFORMER_RMSD>
0.4

> <PUBCHEM_COORDINATE_TYPE>
2
5
10

> <PUBCHEM_EFFECTIVE_ROTOR_COUNT>
2

> <PUBCHEM_FEATURE_SELFOVERLAP>
15.223

> <PUBCHEM_HEAVY_ATOM_COUNT>
10

> <PUBCHEM_ISOTOPIC_ATOM_COUNT>
0

> <PUBCHEM_MMFF94_ENERGY>
34.3625

> <PUBCHEM_MMFF94_PARTIAL_CHARGES>
15
1 -0.36
10 0.28
11 0.15
12 0.15
13 0.15
14 0.15
15 0.06
2 -0.57
3 0.08
4 0.09
5 -0.15
6 -0.15
7 -0.15
8 -0.15
9 0.42

> <PUBCHEM_PHARMACOPHORE_FEATURES>
3
1 1 acceptor
1 2 acceptor
6 3 4 5 6 7 8 rings

> <PUBCHEM_SHAPE_FINGERPRINT>
1 1 17545880894112585167
12716758 59 17908706120712232054
161256 15 18267307710251982325
16945 1 18194401087237217056
18185500 45 18053103109897216671
193761 8 18410574015280038917
20645477 70 17978502358977840919
20871998 184 18201154339179034766
20871998 22 18341905116121127726
21040471 1 17762056536685085410
23552423 10 18261116317431700316
241688 4 18409448076702277017
2748010 2 18411412933998326325

> <PUBCHEM_SHAPE_MULTIPOLES>
194.06
2.97
2.57
0.6
0.46
0.82
0
-2.1
0
-0.17
0
0.01
0.03
0

> <PUBCHEM_SHAPE_SELFOVERLAP>
402.753

> <PUBCHEM_SHAPE_VOLUME>
111

> <RelativeEnergy>
0.27198

> <StereoisomerIndex>
1

> <TautomerIndex>
1

> <POSE_NUMBER>
1

> <LibDockScore>
79.7177

> <HotSpots>
6.41,11.47,-0.06,A,67,5
7.21,9.27,-3.25,A,45,9
6.61,13.27,-2.06,A,51,10

> <-In-Situ Starting Energy>
-1448.38244

> <-In-Situ Final Energy>
13.6970997

> <In-Situ Gradient>
0.0009851412059

$$$$
8785
  SciTegic09142310043D

 21 21  0  0  0  0            999 V2000
    8.1707    9.5583   -4.2797 O   0  0  0  1  0  0
    9.9710    9.7830   -5.5775 O   0  0  0  1  0  0
    6.6776    9.3164   -2.4222 C   0  0  0  1  0  0
    7.1165    8.7524   -3.7436 C   0  0  0  1  0  0
    6.1827    8.4915   -1.4203 C   0  0  0  1  0  0
    6.7972   10.6742   -2.1674 C   0  0  0  1  0  0
    5.9726    8.9916   -0.1433 C   0  0  0  1  0  0
    6.5759   11.1821   -0.8958 C   0  0  0  1  0  0
    6.2058   10.3284    0.1272 C   0  0  0  1  0  0
    9.1137    9.0642   -5.0802 C   0  0  0  1  0  0
    9.0895    7.5673   -5.4054 C   0  0  0  1  0  0
    6.2804    8.7513   -4.4408 H   0  0
    7.4560    7.7306   -3.5807 H   0  0
    6.0170    7.4398   -1.6064 H   0  0
    7.0908   11.3197   -2.9720 H   0  0
    5.6691    8.3337    0.6528 H   0  0
    6.7339   12.2303   -0.6879 H   0  0
    6.1171   10.7017    1.1362 H   0  0
    8.0993    7.2522   -5.7319 H   0  0
    9.3976    6.9897   -4.5389 H   0  0
    9.8042    7.3709   -6.2039 H   0  0
  1  4  1  0
  1 10  1  0
  2 10  2  0
  3  4  1  0
  3  5  2  0
  3  6  1  0
  5  7  1  0
  6  8  2  0
  7  9  2  0
  8  9  1  0
 10 11  1  0
  4 12  1  0
  4 13  1  0
  5 14  1  0
  6 15  1  0
  7 16  1  0
  8 17  1  0
  9 18  1  0
 11 19  1  0
 11 20  1  0
 11 21  1  0
M  END
> <Name>
8785

> <Binding Energy>
-6.4702

> <Ligand Energy>
-6.8488

> <Protein Energy>
-7801.1566

> <Complex Energy>
-7814.4756

> <Complex Entropy>
-31.4762

> <Protein Entropy>
-31.4717

> <Ligand Entropy>
-17.5342

> <Entropic Energy>
17.5297

> <AbsoluteEnergy>
26.3158

> <ConfNumber>
20

> <IonizationIndex>
1

> <MOL_NUMBER>
405

> <NumberOfIonizations>
1

> <NumberOfStereoisomers>
1

> <NumberOfTautomers>
1

> <PUBCHEM_ATOM_DEF_STEREO_COUNT>
0

> <PUBCHEM_ATOM_UDEF_STEREO_COUNT>
0

> <PUBCHEM_BOND_DEF_STEREO_COUNT>
0

> <PUBCHEM_BOND_UDEF_STEREO_COUNT>
0

> <PUBCHEM_CACTVS_TAUTO_COUNT>
1

> <PUBCHEM_COMPONENT_COUNT>
1

> <PUBCHEM_COMPOUND_CID>
8785

> <PUBCHEM_CONFORMER_DIVERSEORDER>
1
6
5
2
4
3

> <PUBCHEM_CONFORMER_ID>
225100000001

> <PUBCHEM_CONFORMER_RMSD>
0.6

> <PUBCHEM_COORDINATE_TYPE>
2
5
10

> <PUBCHEM_EFFECTIVE_ROTOR_COUNT>
3

> <PUBCHEM_FEATURE_SELFOVERLAP>
10.148

> <PUBCHEM_HEAVY_ATOM_COUNT>
11

> <PUBCHEM_ISOTOPIC_ATOM_COUNT>
0

> <PUBCHEM_MMFF94_ENERGY>
20.7463

> <PUBCHEM_MMFF94_PARTIAL_CHARGES>
16
1 -0.43
10 0.66
11 0.06
14 0.15
15 0.15
16 0.15
17 0.15
18 0.15
2 -0.57
3 -0.14
4 0.42
5 -0.15
6 -0.15
7 -0.15
8 -0.15
9 -0.15

> <PUBCHEM_PHARMACOPHORE_FEATURES>
2
1 2 acceptor
6 3 5 6 7 8 9 rings

> <PUBCHEM_SHAPE_FINGERPRINT>
10465860 71 18339375127238988028
12897270 3 18413388743508518278
12932764 1 18411141333409859730
13024252 1 17530966891240160651
13296908 3 17489870436137935262
14144814 61 18040715865991084568
14325111 11 18408882910556189234
15775835 57 17530687597458100540
18186145 218 17988646263680087312
20201158 50 17775004583018929454
20279233 1 17775845718325859462
20281407 28 17918277579494945102
20645476 183 17967537903758989055
20645477 70 16128658496784936804
21061003 4 16988571233441384499
22485316 2 15913323593796571975
23402539 116 18340753880244059909
23559900 14 18201434749668156234
3248919 1 17530684312108812450
369184 2 14045742621138023027
528716 315 18335145310164523335
57812782 119 17989484117447321804
77492 1 17676199165343319408

> <PUBCHEM_SHAPE_MULTIPOLES>
214.64
6.62
1.16
0.97
4.43
0
0.09
0
1.55
-1.11
0.02
0.83
0
0

> <PUBCHEM_SHAPE_SELFOVERLAP>
437.299

> <PUBCHEM_SHAPE_VOLUME>
124.6

> <RelativeEnergy>
11.3539

> <StereoisomerIndex>
1

> <TautomerIndex>
1

> <POSE_NUMBER>
1

> <LibDockScore>
88.3774

> <HotSpots>
5.81,8.67,-0.66,A,61,5
6.41,11.47,-0.06,A,67,8
8.41,8.07,-4.86,A,38,11

> <-In-Situ Starting Energy>
-25.0039705

> <-In-Situ Final Energy>
30.6607064

> <In-Situ Gradient>
0.0007695942131

$$$$
8842
  SciTegic09142310043D

 31 30  0  0  0  0            999 V2000
    9.8360    6.4116   -5.3294 O   0  0  0  1  0  0
    7.8747    9.4069   -3.7500 C   0  0  1  1  0  0
    7.8614   10.0008   -2.3330 C   0  0  0  1  0  0
    9.0792    8.4940   -4.0949 C   0  0  0  1  0  0
    6.7002   10.9855   -2.1224 C   0  0  0  1  0  0
    6.5272    8.7667   -3.9847 C   0  0  0  1  0  0
    8.7449    7.2307   -4.9373 C   0  0  0  1  0  0
    6.6864   11.6176   -0.7643 C   0  0  0  1  0  0
    6.7002   12.9357   -0.4892 C   0  0  0  1  0  0
    6.6196   13.3699    0.9505 C   0  0  0  1  0  0
    6.5512   14.0475   -1.5063 C   0  0  0  1  0  0
   10.2940    6.0574   -4.5750 H   0  0
    7.9226   10.2474   -4.4234 H   0  0
    8.8234   10.4542   -2.1128 H   0  0
    7.6996    9.2093   -1.6094 H   0  0
    9.7721    9.1075   -4.6636 H   0  0
    9.6196    8.2337   -3.1900 H   0  0
    5.7594   10.4565   -2.2098 H   0  0
    6.7028   11.7306   -2.9114 H   0  0
    5.7904    9.5431   -4.0754 H   0  0
    6.2516    8.1713   -3.1168 H   0  0
    6.4524    8.2068   -4.9111 H   0  0
    8.2786    7.5478   -5.8667 H   0  0
    7.9999    6.6084   -4.4342 H   0  0
    6.7048   10.9061    0.0432 H   0  0
    6.4403   12.4999    1.5783 H   0  0
    5.8313   14.1091    1.0972 H   0  0
    7.5449   13.7719    1.3435 H   0  0
    5.8383   14.7824   -1.1580 H   0  0
    6.2372   13.7113   -2.4898 H   0  0
    7.4698   14.5741   -1.6953 H   0  0
  1  7  1  0
  2  3  1  0
  2  4  1  0
  2  6  1  0
  3  5  1  0
  4  7  1  0
  5  8  1  0
  8  9  2  0
  9 10  1  0
  9 11  1  0
  1 12  1  0
  2 13  1  0
  3 14  1  0
  3 15  1  0
  4 16  1  0
  4 17  1  0
  5 18  1  0
  5 19  1  0
  6 20  1  0
  6 21  1  0
  6 22  1  0
  7 23  1  0
  7 24  1  0
  8 25  1  0
 10 26  1  0
 10 27  1  0
 10 28  1  0
 11 29  1  0
 11 30  1  0
 11 31  1  0
M  END
> <Name>
8842

> <Binding Energy>
-5.4557

> <Ligand Energy>
36.6381

> <Protein Energy>
-7801.1566

> <Complex Energy>
-7769.9743

> <Complex Entropy>
-31.4765

> <Protein Entropy>
-31.4717

> <Ligand Entropy>
-17.8724

> <Entropic Energy>
17.8675

> <AbsoluteEnergy>
14.7158

> <ConfNumber>
2

> <IonizationIndex>
1

> <MOL_NUMBER>
409

> <NumberOfIonizations>
1

> <NumberOfStereoisomers>
1

> <NumberOfTautomers>
1

> <PUBCHEM_ATOM_DEF_STEREO_COUNT>
0

> <PUBCHEM_ATOM_UDEF_STEREO_COUNT>
1

> <PUBCHEM_BOND_DEF_STEREO_COUNT>
0

> <PUBCHEM_BOND_UDEF_STEREO_COUNT>
0

> <PUBCHEM_CACTVS_TAUTO_COUNT>
1

> <PUBCHEM_COMPONENT_COUNT>
1

> <PUBCHEM_COMPOUND_CID>
8842

> <PUBCHEM_CONFORMER_DIVERSEORDER>
1
127
38
70
115
84
85
32
145
92
74
129
117
37
112
69
143
134
91
105
109
50
103
52
126
71
147
96
82
133
88
121
33
110
125
75
148
111
30
64
123
83
120
89
2
44
86
22
77
113
80
51
29
130
34
56
149
100
72
104
139
144
7
97
132
106
108
131
67
137
81
142
28
47
65
79
66
114
141
42
45
27
122
36
68
13
101
25
102
58
118
78
40
95
63
138
46
21
146
90
11
43
18
140
94
26
107
99
3
55
5
48
76
59
41
61
93
119
39
31
135
8
128
14
98
49
73
124
15
17
20
23
60
62
57
136
10
87
4
116
54
12
53
6
19
9
16
24
35

> <PUBCHEM_CONFORMER_ID>
0000228A00000001

> <PUBCHEM_CONFORMER_RMSD>
0.6

> <PUBCHEM_COORDINATE_TYPE>
2
5
10

> <PUBCHEM_EFFECTIVE_ROTOR_COUNT>
5

> <PUBCHEM_FEATURE_SELFOVERLAP>
25.376

> <PUBCHEM_HEAVY_ATOM_COUNT>
11

> <PUBCHEM_ISOTOPIC_ATOM_COUNT>
0

> <PUBCHEM_MMFF94_ENERGY>
11.3569

> <PUBCHEM_MMFF94_PARTIAL_CHARGES>
9
1 -0.68
10 0.14
11 0.14
24 0.15
25 0.4
5 0.14
7 0.28
8 -0.29
9 -0.28

> <PUBCHEM_PHARMACOPHORE_FEATURES>
5
1 1 acceptor
1 1 donor
1 6 hydrophobe
3 9 10 11 hydrophobe
5 2 3 4 5 8 hydrophobe

> <PUBCHEM_SHAPE_FINGERPRINT>
11127187 94 8934461612893218723
12006461 19 11242267242094798497
122479 349 18411980277835400461
124424 183 18343587317709172766
12500047 106 18335422378652728170
12507560 40 18339927120878276706
12897270 3 9582978851470740978
12932764 1 17987247805486380526
13571099 52 18343302561108383919
13922767 16 18202281369010065252
14252887 29 8574414448719554869
14325111 11 18272651281134003750
17834069 15 18259987050355042990
18186145 218 17203058464382703238
18511873 20 17822293470165039336
18522851 12 15285357336371979682
20281407 28 8574710204467636757
20653085 51 17917713512886846367
20715346 28 18270691977389007910
20871998 22 8862932884153985575
21524375 3 18338235960315045023
22096605 113 17489584567172362476
22169311 14 18408039615640358026
22485316 2 11458425747425670753
228727 97 14189580727925642479
23402539 116 18335976584490740887
23500284 214 18412832382409644625
23532345 11 17968940923540033514
305870 269 17897162429826033987
3086196 2 17898008181642909667
3248919 1 17968652860473861270
528716 315 12607413212408078795
83771 10 11169917181931334221

> <PUBCHEM_SHAPE_MULTIPOLES>
220.51
6.82
1.73
1.08
0.56
0.07
-0.04
-3.23
-0.99
-0.82
-0.37
0.07
0.14
1.08

> <PUBCHEM_SHAPE_SELFOVERLAP>
400.541

> <PUBCHEM_SHAPE_VOLUME>
141.9

> <RelativeEnergy>
0.200292

> <StereoisomerIndex>
1

> <TautomerIndex>
1

> <POSE_NUMBER>
1

> <LibDockScore>
75.7582

> <HotSpots>
8.41,8.07,-4.86,A,38,7
7.01,13.87,1.54,A,79,10
6.41,14.07,-0.85,A,60,11

> <-In-Situ Starting Energy>
-122.460976

> <-In-Situ Final Energy>
-16.697427

> <In-Situ Gradient>
0.0009864621329

$$$$
8908
  SciTegic09142310043D

 26 25  0  0  0  0            999 V2000
    6.3347   11.7890   -0.7422 O   0  0  0  1  0  0
    6.3361   13.5607    0.6279 O   0  0  0  1  0  0
    6.9108    9.2390   -3.4251 C   0  0  0  1  0  0
    7.7257    7.9728   -3.4229 C   0  0  0  1  0  0
    6.7348    9.7335   -1.9825 C   0  0  0  1  0  0
    7.9297    7.3267   -4.7909 C   0  0  0  1  0  0
    6.7591   11.2356   -1.9898 C   0  0  0  1  0  0
    9.2814    7.6929   -5.3728 C   0  0  0  1  0  0
    6.5173   13.0831   -0.4793 C   0  0  0  1  0  0
    6.8824   13.9698   -1.6737 C   0  0  0  1  0  0
    5.9462    9.0823   -3.9003 H   0  0
    7.4334    9.9738   -4.0392 H   0  0
    7.2558    7.2723   -2.7326 H   0  0
    8.6992    8.2403   -3.0181 H   0  0
    7.5487    9.4054   -1.3395 H   0  0
    5.8365    9.3339   -1.5239 H   0  0
    7.1129    7.5918   -5.4488 H   0  0
    7.9004    6.2419   -4.6953 H   0  0
    7.7832   11.5048   -2.1907 H   0  0
    6.1582   11.6135   -2.8142 H   0  0
   10.0056    6.9894   -4.9689 H   0  0
    9.5585    8.7160   -5.1207 H   0  0
    9.3300    7.5993   -6.4454 H   0  0
    6.1150   13.9722   -2.4401 H   0  0
    7.8161   13.6601   -2.1159 H   0  0
    7.0066   14.9847   -1.3302 H   0  0
  1  7  1  0
  1  9  1  0
  2  9  2  0
  3  4  1  0
  3  5  1  0
  4  6  1  0
  5  7  1  0
  6  8  1  0
  9 10  1  0
  3 11  1  0
  3 12  1  0
  4 13  1  0
  4 14  1  0
  5 15  1  0
  5 16  1  0
  6 17  1  0
  6 18  1  0
  7 19  1  0
  7 20  1  0
  8 21  1  0
  8 22  1  0
  8 23  1  0
 10 24  1  0
 10 25  1  0
 10 26  1  0
M  END
> <Name>
8908

> <Binding Energy>
-24.9239

> <Ligand Energy>
-2.5814

> <Protein Energy>
-7801.1566

> <Complex Energy>
-7828.662

> <Complex Entropy>
-31.4761

> <Protein Entropy>
-31.4717

> <Ligand Entropy>
-17.6203

> <Entropic Energy>
17.6158

> <AbsoluteEnergy>
11.1073

> <ConfNumber>
12

> <IonizationIndex>
1

> <MOL_NUMBER>
410

> <NumberOfIonizations>
1

> <NumberOfStereoisomers>
1

> <NumberOfTautomers>
1

> <PUBCHEM_ATOM_DEF_STEREO_COUNT>
0

> <PUBCHEM_ATOM_UDEF_STEREO_COUNT>
0

> <PUBCHEM_BOND_DEF_STEREO_COUNT>
0

> <PUBCHEM_BOND_UDEF_STEREO_COUNT>
0

> <PUBCHEM_CACTVS_TAUTO_COUNT>
1

> <PUBCHEM_COMPONENT_COUNT>
1

> <PUBCHEM_COMPOUND_CID>
8908

> <PUBCHEM_CONFORMER_DIVERSEORDER>
1
42
142
202
6
16
20
96
89
178
74
104
99
168
3
201
40
144
143
189
185
29
192
113
181
145
90
204
115
117
167
130
200
25
67
170
2
47
80
69
4
36
187
84
82
184
205
26
71
166
134
155
78
199
88
64
196
51
105
45
19
136
38
27
208
14
63
169
125
92
81
34
180
210
18
171
179
85
195
52
148
188
183
43
5
79
120
50
97
49
116
174
62
163
176
102
182
112
162
76
190
141
160
93
23
37
7
33
21
209
177
122
61
193
39
57
24
207
30
87
121
161
203
138
10
137
172
58
28
95
191
53
111
165
77
156
114
164
98
133
68
128
17
35
127
54
12
194
149
147
154
103
110
159
175
9
11
206
100
118
66
60
157
129
72
135
119
106
70
48
83
158
197
198
32
126
173
107
59
15
31
139
123
41
44
65
140
13
152
94
131
153
109
151
108
22
75
150
55
46
186
8
132
91
146
86
124
56
73
101

> <PUBCHEM_CONFORMER_ID>
000022CC00000001

> <PUBCHEM_CONFORMER_RMSD>
0.6

> <PUBCHEM_COORDINATE_TYPE>
2
5
10

> <PUBCHEM_EFFECTIVE_ROTOR_COUNT>
6

> <PUBCHEM_FEATURE_SELFOVERLAP>
15.223

> <PUBCHEM_HEAVY_ATOM_COUNT>
10

> <PUBCHEM_ISOTOPIC_ATOM_COUNT>
0

> <PUBCHEM_MMFF94_ENERGY>
1.6226

> <PUBCHEM_MMFF94_PARTIAL_CHARGES>
5
1 -0.43
10 0.06
2 -0.57
7 0.28
9 0.66

> <PUBCHEM_PHARMACOPHORE_FEATURES>
3
1 2 acceptor
1 8 hydrophobe
4 3 4 5 6 hydrophobe

> <PUBCHEM_SHAPE_FINGERPRINT>
11062470 55 18411700997512884673
14123238 8 17917711314195848037
14325111 11 18410856551339998826
15242433 33 18342739632455920558
17834072 33 18201154459627685141
17834076 25 18344147007587283076
18342897 14 18201721760388440433
190213 19 17821731636866133217
20279233 1 17748832920939044338
20645477 70 18340206289415877654
20719005 15 18410855455849018755
22485316 2 18410853278548746887
23402539 116 18131062732625322509
23402655 69 18342737412200317669
366044 4 18333449855003598755
42788 4 18410292514870673389
449060 50 18334857255382408796
522135 26 18341895182246400198

> <PUBCHEM_SHAPE_MULTIPOLES>
194.06
11.16
0.95
0.6
4.82
0.08
0
-0.94
-0.11
-0.66
0
0.06
-0.01
0.03

> <PUBCHEM_SHAPE_SELFOVERLAP>
348.502

> <PUBCHEM_SHAPE_VOLUME>
125.7

> <RelativeEnergy>
7.01609

> <StereoisomerIndex>
1

> <TautomerIndex>
1

> <POSE_NUMBER>
1

> <LibDockScore>
80.4188

> <HotSpots>
5.61,14.27,0.34,P,87,2
6.61,10.07,-1.25,A,54,5
8.41,8.07,-4.86,A,38,8

> <-In-Situ Starting Energy>
-124.103447

> <-In-Situ Final Energy>
6.33271054

> <In-Situ Gradient>
0.0009585351615

$$$$
8914
  SciTegic09142310043D

 30 29  0  0  0  0            999 V2000
    4.4678    9.3572    0.0958 O   0  0  0  1  0  0
    7.7768    9.8246   -2.7544 C   0  0  0  1  0  0
    6.5428   10.6623   -2.4561 C   0  0  0  1  0  0
    7.6624    9.0579   -4.0681 C   0  0  0  1  0  0
    6.4042   11.1393   -1.0013 C   0  0  0  1  0  0
    8.9716    8.3384   -4.4087 C   0  0  0  1  0  0
    6.7337   10.0893    0.0439 C   0  0  0  1  0  0
    8.7525    6.9131   -4.9270 C   0  0  0  1  0  0
    5.7951    8.8969   -0.0140 C   0  0  0  1  0  0
   10.0395    6.0673   -4.9016 C   0  0  0  1  0  0
    4.3018    9.7696    0.9376 H   0  0
    7.8265    9.0452   -2.0127 H   0  0
    8.6951   10.4019   -2.6738 H   0  0
    6.4615   11.4970   -3.1518 H   0  0
    5.7199    9.9984   -2.6692 H   0  0
    7.3389    9.7071   -4.8709 H   0  0
    6.8517    8.3395   -3.9620 H   0  0
    6.9636   12.0532   -0.8304 H   0  0
    5.3761   11.3869   -0.7944 H   0  0
    9.5323    8.9247   -5.1331 H   0  0
    9.5936    8.2919   -3.5136 H   0  0
    7.7523    9.7585   -0.0902 H   0  0
    6.6598   10.5391    1.0316 H   0  0
    8.0031    6.4164   -4.3136 H   0  0
    8.3109    6.9583   -5.9162 H   0  0
    6.0323    8.1697    0.7634 H   0  0
    5.8821    8.3705   -0.9652 H   0  0
   10.6731    6.3092   -4.0516 H   0  0
   10.6335    6.2100   -5.8054 H   0  0
    9.8216    5.0088   -4.7684 H   0  0
  1  9  1  0
  2  3  1  0
  2  4  1  0
  3  5  1  0
  4  6  1  0
  5  7  1  0
  6  8  1  0
  7  9  1  0
  8 10  1  0
  1 11  1  0
  2 12  1  0
  2 13  1  0
  3 14  1  0
  3 15  1  0
  4 16  1  0
  4 17  1  0
  5 18  1  0
  5 19  1  0
  6 20  1  0
  6 21  1  0
  7 22  1  0
  7 23  1  0
  8 24  1  0
  8 25  1  0
  9 26  1  0
  9 27  1  0
 10 28  1  0
 10 29  1  0
 10 30  1  0
M  END
> <Name>
8914

> <Binding Energy>
-22.7644

> <Ligand Energy>
13.735

> <Protein Energy>
-7801.1566

> <Complex Energy>
-7810.1861

> <Complex Entropy>
-31.476

> <Protein Entropy>
-31.4717

> <Ligand Entropy>
-17.7055

> <Entropic Energy>
17.7012

> <AbsoluteEnergy>
7.83415

> <ConfNumber>
19

> <IonizationIndex>
1

> <MOL_NUMBER>
411

> <NumberOfIonizations>
1

> <NumberOfStereoisomers>
1

> <NumberOfTautomers>
1

> <PUBCHEM_ATOM_DEF_STEREO_COUNT>
0

> <PUBCHEM_ATOM_UDEF_STEREO_COUNT>
0

> <PUBCHEM_BOND_DEF_STEREO_COUNT>
0

> <PUBCHEM_BOND_UDEF_STEREO_COUNT>
0

> <PUBCHEM_CACTVS_TAUTO_COUNT>
1

> <PUBCHEM_COMPONENT_COUNT>
1

> <PUBCHEM_COMPOUND_CID>
8914

> <PUBCHEM_CONFORMER_DIVERSEORDER>
1
177
261
303
17
211
287
265
19
283
260
298
320
123
49
206
108
222
9
311
16
267
97
2
158
28
146
34
130
306
24
304
172
316
215
3
286
92
324
173
121
323
59
278
115
15
75
83
243
164
105
150
183
268
8
159
300
162
29
282
154
203
68
295
20
309
4
62
66
64
285
52
133
18
214
302
54
280
317
179
27
224
48
313
37
35
271
180
5
93
318
135
310
43
321
125
240
289
220
114
191
65
13
207
301
12
147
31
231
262
277
307
30
21
25
258
80
176
299
117
40
91
26
292
163
74
90
314
160
134
288
269
202
45
53
218
187
70
98
294
276
208
23
11
139
116
291
228
315
166
322
169
182
57
39
229
305
102
60
51
94
252
279
244
55
319
185
82
46
137
189
266
235
10
308
33
312
197
155
89
6
232
170
186
50
181
250
236
129
249
7
61
143
14
88
201
204
290
192
71
254
119
284
36
165
297
69
95
142
79
118
175
96
167
110
151
63
72
242
256
47
213
246
193
78
296
131
67
251
122
257
238
239
107
248
149
225
100
171
195
200
113
109
148
153
198
253
226
188
124
44
255
270
127
56
77
264
293
274
194
111
216
112
128
140
241
141
106
84
104
247
38
156
275
221
272
58
103
144
199
209
168
210
101
99
32
196
145
138
230
87
161
73
136
233
132
86
178
245
212
81
234
76
205
259
22
223
152
42
263
120
227
174
190
126
157
219
184
41
281
85
273
237
217

> <PUBCHEM_CONFORMER_ID>
000022D200000001

> <PUBCHEM_CONFORMER_RMSD>
0.6

> <PUBCHEM_COORDINATE_TYPE>
2
5
10

> <PUBCHEM_EFFECTIVE_ROTOR_COUNT>
7

> <PUBCHEM_FEATURE_SELFOVERLAP>
15.223

> <PUBCHEM_HEAVY_ATOM_COUNT>
10

> <PUBCHEM_ISOTOPIC_ATOM_COUNT>
0

> <PUBCHEM_MMFF94_ENERGY>
-2.0009

> <PUBCHEM_MMFF94_PARTIAL_CHARGES>
3
1 -0.68
30 0.4
9 0.28

> <PUBCHEM_PHARMACOPHORE_FEATURES>
3
1 1 acceptor
1 1 donor
1 10 hydrophobe

> <PUBCHEM_SHAPE_FINGERPRINT>
11062470 55 18410575080368118123
114248 4 18411136935115421977
12815109 37 18113899359798705037
14123238 8 18410856555360646565
14251718 22 18412262852508192823
15501527 16 18335702681610022573
17834072 33 18201437020962174285
17834076 25 18410011039498291362
187816 3 16343986909671346123
20645477 70 18270401577523504102
20719005 15 18411982455272783417
20767249 13 18342457036650780131
20767249 213 17530968003156720380
22485316 2 18408321085968868306
23402539 116 18413101758663799621
366044 4 18333732420469505419
42788 4 18410856559761180324
8209 1 18410573985172563189

> <PUBCHEM_SHAPE_MULTIPOLES>
199.93
13.27
0.78
0.61
0.02
0.01
0
0.12
-0.53
0.04
0
0.06
0
-0.02

> <PUBCHEM_SHAPE_SELFOVERLAP>
348.666

> <PUBCHEM_SHAPE_VOLUME>
132.5

> <RelativeEnergy>
6.73324

> <StereoisomerIndex>
1

> <TautomerIndex>
1

> <POSE_NUMBER>
1

> <LibDockScore>
73.8866

> <HotSpots>
8.01,10.07,-2.25,A,50,2
5.81,8.67,-0.66,A,61,7
8.41,8.07,-4.86,A,38,8

> <-In-Situ Starting Energy>
-270.866033

> <-In-Situ Final Energy>
7.65117538

> <In-Situ Gradient>
0.0009522701411

$$$$
8918
  SciTegic09142310043D

 35 34  0  0  0  0            999 V2000
    7.2708    9.0870   -2.5426 O   0  0  0  1  0  0
    6.3610   10.9758   -1.6953 O   0  0  0  1  0  0
   10.6100    5.5033   -4.7144 C   0  0  0  1  0  0
    9.7484    6.7207   -5.2577 C   0  0  0  1  0  0
   12.1345    5.7025   -4.6697 C   0  0  0  1  0  0
    9.1745    7.7307   -4.2247 C   0  0  0  1  0  0
   13.0442    4.4637   -4.6469 C   0  0  0  1  0  0
    8.6066    9.0715   -4.6274 C   0  0  0  1  0  0
   12.8998    3.5563   -5.8796 C   0  0  0  1  0  0
    8.0706    9.8701   -3.4240 C   0  0  0  1  0  0
   13.8894    2.3890   -5.8716 C   0  0  0  1  0  0
    6.5302    9.7585   -1.6670 C   0  0  0  1  0  0
    5.8828    8.8820   -0.5956 C   0  0  0  1  0  0
   10.2509    5.1193   -3.7673 H   0  0
   10.5244    4.6391   -5.3507 H   0  0
   10.2807    7.2321   -6.0605 H   0  0
    8.8455    6.3347   -5.7111 H   0  0
   12.3779    6.2776   -3.7773 H   0  0
   12.4195    6.2495   -5.5678 H   0  0
    8.2506    7.2819   -3.8596 H   0  0
    9.8810    7.9181   -3.4167 H   0  0
   14.0750    4.8206   -4.6156 H   0  0
   12.9287    3.9120   -3.7208 H   0  0
    9.3386    9.6540   -5.1802 H   0  0
    7.7533    8.8859   -5.2516 H   0  0
   13.0557    4.1497   -6.7813 H   0  0
   11.8927    3.1472   -5.9467 H   0  0
    7.4712   10.7005   -3.8018 H   0  0
    8.9074   10.2529   -2.8372 H   0  0
   13.6508    1.6879   -5.0732 H   0  0
   14.9146    2.7350   -5.7326 H   0  0
   13.8474    1.8375   -6.8111 H   0  0
    6.5923    8.6928    0.2055 H   0  0
    5.5671    7.9336   -1.0304 H   0  0
    5.0191    9.3898   -0.1675 H   0  0
  1 10  1  0
  1 12  1  0
  2 12  2  0
  3  4  1  0
  3  5  1  0
  4  6  1  0
  5  7  1  0
  6  8  1  0
  7  9  1  0
  8 10  1  0
  9 11  1  0
 12 13  1  0
  3 14  1  0
  3 15  1  0
  4 16  1  0
  4 17  1  0
  5 18  1  0
  5 19  1  0
  6 20  1  0
  6 21  1  0
  7 22  1  0
  7 23  1  0
  8 24  1  0
  8 25  1  0
  9 26  1  0
  9 27  1  0
 10 28  1  0
 10 29  1  0
 11 30  1  0
 11 31  1  0
 11 32  1  0
 13 33  1  0
 13 34  1  0
 13 35  1  0
M  END
> <Name>
8918

> <Binding Energy>
-10.5541

> <Ligand Energy>
-7.4288

> <Protein Energy>
-7801.1566

> <Complex Energy>
-7819.1396

> <Complex Entropy>
-31.4774

> <Protein Entropy>
-31.4717

> <Ligand Entropy>
-18.4796

> <Entropic Energy>
18.4739

> <AbsoluteEnergy>
6.56971

> <ConfNumber>
2

> <IonizationIndex>
1

> <MOL_NUMBER>
412

> <NumberOfIonizations>
1

> <NumberOfStereoisomers>
1

> <NumberOfTautomers>
1

> <PUBCHEM_ATOM_DEF_STEREO_COUNT>
0

> <PUBCHEM_ATOM_UDEF_STEREO_COUNT>
0

> <PUBCHEM_BOND_DEF_STEREO_COUNT>
0

> <PUBCHEM_BOND_UDEF_STEREO_COUNT>
0

> <PUBCHEM_CACTVS_TAUTO_COUNT>
1

> <PUBCHEM_COMPONENT_COUNT>
1

> <PUBCHEM_COMPOUND_CID>
8918

> <PUBCHEM_CONFORMER_DIVERSEORDER>
1
325
559
100
21
122
178
13
410
214
123
59
87
6
173
2
194
212
149
12
498
247
4
19
134
9
380
108
35
249
556
74
475
40
459
191
347
16
17
176
375
434
67
50
20
11
233
146
172
381
136
203
496
10
151
572
302
5
14
72
47
279
132
98
259
495
463
232
51
429
41
437
489
24
268
110
550
484
519
192
131
440
63
533
481
319
128
104
99
52

> <PUBCHEM_CONFORMER_ID>
000022D600000001

> <PUBCHEM_CONFORMER_RMSD>
1

> <PUBCHEM_COORDINATE_TYPE>
2
5
10

> <PUBCHEM_EFFECTIVE_ROTOR_COUNT>
9

> <PUBCHEM_FEATURE_SELFOVERLAP>
10.148

> <PUBCHEM_HEAVY_ATOM_COUNT>
13

> <PUBCHEM_ISOTOPIC_ATOM_COUNT>
0

> <PUBCHEM_MMFF94_ENERGY>
1.6584

> <PUBCHEM_MMFF94_PARTIAL_CHARGES>
5
1 -0.43
10 0.28
12 0.66
13 0.06
2 -0.57

> <PUBCHEM_PHARMACOPHORE_FEATURES>
2
1 11 hydrophobe
1 2 acceptor

> <PUBCHEM_SHAPE_FINGERPRINT>
12091667 2 18260547823682957911
13533116 47 17095794430909227610
14123238 8 18411138038911474045
1420 363 17894633651576246587
14251764 46 18343301461486064050
17834072 33 18131348643712360548
17834076 25 17489869336668550967
20281389 69 18410291406453035281
20621476 8 18187364290640428693
20645477 70 18130229247056456686
20767249 213 18413108372828961141
21130983 4 18411422825635303369
23035841 295 18408884036101611771
23402539 116 18060413629835254333
23521765 1 18341894086554953511
33684 2 18334575733377244586
42788 4 18410573985151457636
4463277 17 18410855460671799045
8209 1 18410855455838482271

> <PUBCHEM_SHAPE_MULTIPOLES>
255.8
19.99
0.91
0.6
7.82
0.07
0
0.12
-0.67
-0.71
0
0.08
-0.01
-0.03

> <PUBCHEM_SHAPE_SELFOVERLAP>
461.349

> <PUBCHEM_SHAPE_VOLUME>
164.7

> <RelativeEnergy>
2.25119

> <StereoisomerIndex>
1

> <TautomerIndex>
1

> <POSE_NUMBER>
1

> <LibDockScore>
84.2852

> <HotSpots>
13.41,5.07,-3.25,A,44,7
8.41,8.07,-4.86,A,38,8
5.81,8.67,-0.66,A,61,13

> <-In-Situ Starting Energy>
-1350.60303

> <-In-Situ Final Energy>
12.1747271

> <In-Situ Gradient>
0.0009603993019

$$$$
9015
  SciTegic09142310043D

 17 17  0  0  0  0            999 V2000
    8.6226    2.6546  -14.0367 O   0  0  0  1  0  0
   12.6059    5.9210  -11.9935 O   0  0  0  1  0  0
    9.6382    3.3909  -13.4313 C   0  0  0  1  0  0
   10.5351    4.0156  -14.2819 C   0  0  0  1  0  0
    9.7976    3.5485  -12.0555 C   0  0  0  1  0  0
   11.6823    4.9953  -12.4315 C   0  0  0  1  0  0
   11.5735    4.7786  -13.7947 C   0  0  0  1  0  0
   10.8006    4.3712  -11.5551 C   0  0  0  1  0  0
    7.4527    2.4963  -13.2612 C   0  0  0  1  0  0
   13.0165    5.6331  -11.1860 H   0  0
   10.4042    3.9637  -15.3453 H   0  0
    9.1378    3.0565  -11.3624 H   0  0
   12.2591    5.2160  -14.5073 H   0  0
   10.8573    4.5293  -10.4875 H   0  0
    7.1121    3.4520  -12.8599 H   0  0
    7.6200    1.7844  -12.4528 H   0  0
    6.6536    2.1031  -13.8890 H   0  0
  1  3  1  0
  1  9  1  0
  2  6  1  0
  3  4  2  0
  3  5  1  0
  4  7  1  0
  5  8  2  0
  6  7  2  0
  6  8  1  0
  2 10  1  0
  4 11  1  0
  5 12  1  0
  7 13  1  0
  8 14  1  0
  9 15  1  0
  9 16  1  0
  9 17  1  0
M  END
> <Name>
9015

> <Binding Energy>
-22.284

> <Ligand Energy>
-7.2096

> <Protein Energy>
-7801.1566

> <Complex Energy>
-7830.6502

> <Complex Entropy>
-31.4761

> <Protein Entropy>
-31.4717

> <Ligand Entropy>
-16.876

> <Entropic Energy>
16.8716

> <AbsoluteEnergy>
19.3615

> <ConfNumber>
1

> <Ionization pH>
7.5

> <IonizationIndex>
1

> <MOL_NUMBER>
415

> <NumberOfIonizations>
1

> <NumberOfStereoisomers>
1

> <NumberOfTautomers>
1

> <PUBCHEM_ATOM_DEF_STEREO_COUNT>
0

> <PUBCHEM_ATOM_UDEF_STEREO_COUNT>
0

> <PUBCHEM_BOND_DEF_STEREO_COUNT>
0

> <PUBCHEM_BOND_UDEF_STEREO_COUNT>
0

> <PUBCHEM_CACTVS_TAUTO_COUNT>
2

> <PUBCHEM_COMPONENT_COUNT>
1

> <PUBCHEM_COMPOUND_CID>
9015

> <PUBCHEM_CONFORMER_DIVERSEORDER>
1

> <PUBCHEM_CONFORMER_ID>
233700000001

> <PUBCHEM_CONFORMER_RMSD>
0.4

> <PUBCHEM_COORDINATE_TYPE>
2
5
10

> <PUBCHEM_EFFECTIVE_ROTOR_COUNT>
1

> <PUBCHEM_FEATURE_SELFOVERLAP>
15.223

> <PUBCHEM_HEAVY_ATOM_COUNT>
9

> <PUBCHEM_ISOTOPIC_ATOM_COUNT>
0

> <PUBCHEM_MMFF94_ENERGY>
29.644

> <PUBCHEM_MMFF94_PARTIAL_CHARGES>
14
1 -0.36
10 0.15
11 0.15
12 0.15
13 0.15
17 0.45
2 -0.53
3 0.08
4 -0.15
5 -0.15
6 0.08
7 -0.15
8 -0.15
9 0.28

> <PUBCHEM_PHARMACOPHORE_FEATURES>
3
1 1 acceptor
1 2 donor
6 3 4 5 6 7 8 rings

> <PUBCHEM_SHAPE_FINGERPRINT>
10857977 72 18337103574532779984
14325111 11 18410855442953619328
15310529 11 16732973215545588744
16714656 1 18410575084705276982
16945 1 18410573980877602341
20871998 184 18129387175029833543
21040471 1 18410573950797052487
21293036 1 18410284835432147245
23235685 24 18411414007861521441
23402655 69 18195509417367029269
23552423 10 18116431646941762716
2748010 2 18123185972435318101
29004967 10 15285637681571707418
369184 2 16226041210790877056
5084963 1 18200311009502135538

> <PUBCHEM_SHAPE_MULTIPOLES>
173.48
3.87
1.37
0.6
1.22
0.14
0
-0.69
0
-0.16
0
0.01
0
0

> <PUBCHEM_SHAPE_SELFOVERLAP>
358.003

> <PUBCHEM_SHAPE_VOLUME>
100.6

> <RelativeEnergy>
0

> <StereoisomerIndex>
1

> <TautomerIndex>
1

> <POSE_NUMBER>
1

> <LibDockScore>
52.8868

> <HotSpots>
9.21,3.67,-12.86,A,26,5
11.21,4.87,-14.65,A,18,7
7.21,2.27,-14.26,A,20,9

> <-In-Situ Starting Energy>
-73.0853061

> <-In-Situ Final Energy>
18.980608

> <In-Situ Gradient>
0.0006985589232

$$$$
9473
  SciTegic09142310043D

 24 25  0  0  0  0            999 V2000
    6.3999    9.0338    0.0803 O   0  0  0  1  0  0
    6.2080   11.2338   -0.1819 O   0  0  0  1  0  0
    7.9099    7.0172   -4.4003 O   0  0  0  1  0  0
    9.5331    5.5086   -4.7416 O   0  0  0  1  0  0
    6.9625    9.0763   -3.5681 C   0  0  0  1  0  0
    6.5778    9.3053   -1.2715 C   0  0  0  1  0  0
    6.4966   10.6927   -1.4252 C   0  0  0  1  0  0
    6.7870    8.4925   -2.3308 C   0  0  0  1  0  0
    6.8456   10.4566   -3.7177 C   0  0  0  1  0  0
    6.6612   11.2768   -2.6271 C   0  0  0  1  0  0
    7.2784    8.2549   -4.7433 C   0  0  0  1  0  0
    6.0381   10.2057    0.7584 C   0  0  0  1  0  0
    9.0464    6.6114   -4.9506 C   0  0  0  1  0  0
    9.7171    7.5820   -5.8825 C   0  0  0  1  0  0
    6.8237    7.4201   -2.2165 H   0  0
    6.8269   10.9142   -4.6801 H   0  0
    6.5975   12.3470   -2.7434 H   0  0
    7.9139    8.9180   -5.3095 H   0  0
    6.3508    8.0529   -5.2666 H   0  0
    6.6773   10.4000    1.5992 H   0  0
    4.9981   10.0852    1.0345 H   0  0
    9.8902    8.5186   -5.3662 H   0  0
    8.9974    7.7900   -6.6335 H   0  0
   10.6223    7.1648   -6.3247 H   0  0
  1  6  1  0
  1 12  1  0
  2  7  1  0
  2 12  1  0
  3 11  1  0
  3 13  1  0
  4 13  2  0
  5  8  2  0
  5  9  1  0
  5 11  1  0
  6  7  2  0
  6  8  1  0
  7 10  1  0
  9 10  2  0
 13 14  1  0
  8 15  1  0
  9 16  1  0
 10 17  1  0
 11 18  1  0
 11 19  1  0
 12 20  1  0
 12 21  1  0
 14 22  1  0
 14 23  1  0
 14 24  1  0
M  END
> <Name>
9473

> <Binding Energy>
-19.3274

> <Ligand Energy>
11.7712

> <Protein Energy>
-7801.1566

> <Complex Energy>
-7808.7128

> <Complex Entropy>
-31.4775

> <Protein Entropy>
-31.4717

> <Ligand Entropy>
-18.2103

> <Entropic Energy>
18.2045

> <AbsoluteEnergy>
63.7426

> <ConfNumber>
27

> <IonizationIndex>
1

> <MOL_NUMBER>
422

> <NumberOfIonizations>
1

> <NumberOfStereoisomers>
1

> <NumberOfTautomers>
1

> <PUBCHEM_ATOM_DEF_STEREO_COUNT>
0

> <PUBCHEM_ATOM_UDEF_STEREO_COUNT>
0

> <PUBCHEM_BOND_DEF_STEREO_COUNT>
0

> <PUBCHEM_BOND_UDEF_STEREO_COUNT>
0

> <PUBCHEM_CACTVS_TAUTO_COUNT>
1

> <PUBCHEM_COMPONENT_COUNT>
1

> <PUBCHEM_COMPOUND_CID>
9473

> <PUBCHEM_CONFORMER_DIVERSEORDER>
2
10
7
3
11
4
6
5
12
9
1
8

> <PUBCHEM_CONFORMER_ID>
250100000002

> <PUBCHEM_CONFORMER_RMSD>
0.6

> <PUBCHEM_COORDINATE_TYPE>
2
5
10

> <PUBCHEM_EFFECTIVE_ROTOR_COUNT>
3.6

> <PUBCHEM_FEATURE_SELFOVERLAP>
25.527

> <PUBCHEM_HEAVY_ATOM_COUNT>
14

> <PUBCHEM_ISOTOPIC_ATOM_COUNT>
0

> <PUBCHEM_MMFF94_ENERGY>
28.448

> <PUBCHEM_MMFF94_PARTIAL_CHARGES>
17
1 -0.36
10 -0.15
11 0.42
12 0.56
13 0.66
14 0.06
15 0.15
16 0.15
19 0.15
2 -0.36
3 -0.43
4 -0.57
5 -0.14
6 0.08
7 0.08
8 -0.15
9 -0.15

> <PUBCHEM_PHARMACOPHORE_FEATURES>
5
1 1 acceptor
1 2 acceptor
1 4 acceptor
5 1 2 6 7 12 rings
6 5 6 7 8 9 10 rings

> <PUBCHEM_SHAPE_FINGERPRINT>
10219947 1 18343863316164698831
11471102 20 18411975879899529420
11471102 22 18411144644650387689
11543360 7 15791742896606013702
11796584 16 16878214264905529706
12032990 46 18337954489554225870
12251169 10 18272370892799895183
13705890 14 16877664552204558350
14251717 144 18413384345657439567
14252887 29 18343305834074202574
15375462 189 18335977606096760810
15501101 241 18409727382757653716
16945 1 18270664442569951148
17844478 74 18260543407407149180
18915474 69 13767929052507612921
200 152 18059562599699192765
20279233 1 18113335323730338671
20281407 28 17603869987854660619
20645477 70 18339350886417273719
20871998 22 18128825144568327926
21501925 9 18411413999292770328
22485316 2 17458059369975999883
231179 274 12031790244841339226
23402539 116 13110959795238874505
23557571 272 17168131304905680876
26918003 58 18408889546929436875
2748010 2 18054776296549913572
4047638 21 11024107663611611526
42 15 18409735058275304361
4990 188 12468639395874627352
77492 1 17418088853983949221

> <PUBCHEM_SHAPE_MULTIPOLES>
264.64
8.23
1.38
0.95
6.51
0.28
-0.13
-2.39
-2.02
-1.15
-0.05
0.91
-0.07
0.42

> <PUBCHEM_SHAPE_SELFOVERLAP>
565.968

> <PUBCHEM_SHAPE_VOLUME>
147.5

> <RelativeEnergy>
5.79001

> <StereoisomerIndex>
1

> <TautomerIndex>
1

> <POSE_NUMBER>
1

> <LibDockScore>
98.1026

> <HotSpots>
7.01,11.07,-2.85,A,47,10
8.41,8.07,-4.86,A,38,11
5.81,9.67,0.14,A,68,12

> <-In-Situ Starting Energy>
-298.615985

> <-In-Situ Final Energy>
-20.1116265

> <In-Situ Gradient>
0.0006870776364

$$$$
9475
  SciTegic09142310043D

 22 21  0  0  0  0            999 V2000
    4.9088    9.3067    0.2716 O   0  5  0  1  0  0
    5.7751    7.8709   -1.0906 O   0  0  0  1  0  0
    6.7782   10.8888    0.2947 N   0  3  0  1  0  0
    6.7754   10.6073   -2.1882 C   0  0  0  1  0  0
    6.7519    9.6958   -3.4288 C   0  0  0  1  0  0
    6.8899    9.9500   -0.8022 C   0  0  2  1  0  0
    7.8529    8.6483   -3.5088 C   0  0  0  1  0  0
    9.2599    9.2326   -3.5071 C   0  0  0  1  0  0
    5.7774    8.9527   -0.5255 C   0  0  0  1  0  0
    7.0325   11.8625    0.0619 H   0  0
    7.3551   10.5545    1.0949 H   0  0
    5.7823   10.7464    0.5839 H   0  0
    7.5710   11.3368   -2.2906 H   0  0
    5.8471   11.1488   -2.2175 H   0  0
    5.8138    9.1545   -3.4440 H   0  0
    6.7544   10.3059   -4.3321 H   0  0
    7.8510    9.4780   -0.6990 H   0  0
    7.7141    8.0435   -4.4057 H   0  0
    7.7247    7.9641   -2.6765 H   0  0
    9.4099    9.9388   -2.6915 H   0  0
    9.4845    9.7232   -4.4529 H   0  0
    9.9713    8.4253   -3.3610 H   0  0
  1  9  1  0
  2  9  2  0
  3  6  1  0
  4  5  1  0
  4  6  1  0
  5  7  1  0
  6  9  1  0
  7  8  1  0
  3 10  1  0
  3 11  1  0
  3 12  1  0
  4 13  1  0
  4 14  1  0
  5 15  1  0
  5 16  1  0
  6 17  1  0
  7 18  1  0
  7 19  1  0
  8 20  1  0
  8 21  1  0
  8 22  1  0
M  CHG  2   1  -1   3   1
M  END
> <Name>
9475

> <Binding Energy>
-21.6963

> <Ligand Energy>
-95.1033

> <Protein Energy>
-7801.1566

> <Complex Energy>
-7917.9563

> <Complex Entropy>
-31.4756

> <Protein Entropy>
-31.4717

> <Ligand Entropy>
-17.094

> <Entropic Energy>
17.0901

> <AbsoluteEnergy>
8.25218

> <ConfNumber>
95

> <Ionization pH>
7.5

> <IonizationIndex>
1

> <MOL_NUMBER>
423

> <NumberOfIonizations>
1

> <NumberOfStereoisomers>
1

> <NumberOfTautomers>
1

> <PUBCHEM_ATOM_DEF_STEREO_COUNT>
0

> <PUBCHEM_ATOM_UDEF_STEREO_COUNT>
1

> <PUBCHEM_BOND_DEF_STEREO_COUNT>
0

> <PUBCHEM_BOND_UDEF_STEREO_COUNT>
0

> <PUBCHEM_CACTVS_TAUTO_COUNT>
1

> <PUBCHEM_COMPONENT_COUNT>
1

> <PUBCHEM_COMPOUND_CID>
9475

> <PUBCHEM_CONFORMER_DIVERSEORDER>
2
38
27
15
35
31
36
25
6
5
30
32
34
37
29
23
8
9
33
28
16
13
1
7
21
18
24
12
26
4
3
20
19
22
14
10
11
17

> <PUBCHEM_CONFORMER_ID>
250300000002

> <PUBCHEM_CONFORMER_RMSD>
0.6

> <PUBCHEM_COORDINATE_TYPE>
2
5
10

> <PUBCHEM_EFFECTIVE_ROTOR_COUNT>
4

> <PUBCHEM_FEATURE_SELFOVERLAP>
30.505

> <PUBCHEM_HEAVY_ATOM_COUNT>
9

> <PUBCHEM_ISOTOPIC_ATOM_COUNT>
0

> <PUBCHEM_MMFF94_ENERGY>
1.805

> <PUBCHEM_MMFF94_PARTIAL_CHARGES>
8
1 -0.65
2 -0.57
20 0.36
21 0.36
22 0.5
3 -0.99
6 0.33
9 0.66

> <PUBCHEM_PHARMACOPHORE_FEATURES>
6
1 1 acceptor
1 2 acceptor
1 3 cation
1 3 donor
1 8 hydrophobe
3 1 2 9 anion

> <PUBCHEM_SHAPE_FINGERPRINT>
10857977 72 18271237313428178506
11062470 55 17458062655652231620
12897270 3 18411138026205965674
12932764 1 17385715907046300056
14325111 11 18341615884881412078
20201158 50 18273215283354633422
23552423 10 18187648058470292272
3248919 1 18271531922689173686

> <PUBCHEM_SHAPE_MULTIPOLES>
168.5
6.05
1.16
0.7
4.61
0.16
-0.01
-0.73
-0.51
-0.73
0.08
-0.04
-0.01
0.24

> <PUBCHEM_SHAPE_SELFOVERLAP>
307.58

> <PUBCHEM_SHAPE_VOLUME>
107.5

> <RelativeEnergy>
4.66869

> <StereoisomerIndex>
1

> <TautomerIndex>
1

> <POSE_NUMBER>
1

> <LibDockScore>
74.913

> <HotSpots>
4.21,9.07,-0.26,P,84,1
8.01,10.07,-2.25,A,50,5
7.21,9.27,-3.25,A,45,7

> <-In-Situ Starting Energy>
-32.4642192

> <-In-Situ Final Energy>
52.0557241

> <In-Situ Gradient>
0.0008880885275

$$$$
9862
  SciTegic09142310043D

 23 22  0  0  0  0            999 V2000
    9.7848    9.5996   -6.0212 O   0  0  0  1  0  0
    7.4605    9.5296   -3.6675 C   0  0  0  1  0  0
    8.9492    9.1689   -3.8110 C   0  0  0  1  0  0
    6.9009    8.9201   -2.4105 C   0  0  0  1  0  0
    6.4819    9.5225   -1.2827 C   0  0  0  1  0  0
    9.3455    8.8053   -5.2440 C   0  0  0  1  0  0
    5.7606    8.7456   -0.2171 C   0  0  0  1  0  0
    6.4847   10.9972   -0.9991 C   0  0  0  1  0  0
    9.2706    7.3262   -5.5888 C   0  0  0  1  0  0
    6.8817    9.1424   -4.5082 H   0  0
    7.3164   10.6065   -3.6862 H   0  0
    9.1888    8.3072   -3.1983 H   0  0
    9.5946    9.9533   -3.4277 H   0  0
    6.7668    7.8573   -2.4875 H   0  0
    5.5299    7.7416   -0.5706 H   0  0
    4.8274    9.2366    0.0603 H   0  0
    6.3705    8.6580    0.6785 H   0  0
    5.4993   11.3059   -0.6668 H   0  0
    6.7653   11.5843   -1.8706 H   0  0
    7.1795   11.2159   -0.1914 H   0  0
    9.9528    7.1255   -6.4133 H   0  0
    8.2451    7.0690   -5.8499 H   0  0
    9.5798    6.7170   -4.7413 H   0  0
  1  6  2  0
  2  3  1  0
  2  4  1  0
  3  6  1  0
  4  5  2  0
  5  7  1  0
  5  8  1  0
  6  9  1  0
  2 10  1  0
  2 11  1  0
  3 12  1  0
  3 13  1  0
  4 14  1  0
  7 15  1  0
  7 16  1  0
  7 17  1  0
  8 18  1  0
  8 19  1  0
  8 20  1  0
  9 21  1  0
  9 22  1  0
  9 23  1  0
M  END
> <Name>
9862

> <Binding Energy>
-20.5275

> <Ligand Energy>
19.8383

> <Protein Energy>
-7801.1566

> <Complex Energy>
-7801.8459

> <Complex Entropy>
-31.4755

> <Protein Entropy>
-31.4717

> <Ligand Entropy>
-17.2245

> <Entropic Energy>
17.2207

> <AbsoluteEnergy>
10.512

> <ConfNumber>
10

> <IonizationIndex>
1

> <MOL_NUMBER>
425

> <NumberOfIonizations>
1

> <NumberOfStereoisomers>
1

> <NumberOfTautomers>
1

> <PUBCHEM_ATOM_DEF_STEREO_COUNT>
0

> <PUBCHEM_ATOM_UDEF_STEREO_COUNT>
0

> <PUBCHEM_BOND_DEF_STEREO_COUNT>
0

> <PUBCHEM_BOND_UDEF_STEREO_COUNT>
0

> <PUBCHEM_CACTVS_TAUTO_COUNT>
3

> <PUBCHEM_COMPONENT_COUNT>
1

> <PUBCHEM_COMPOUND_CID>
9862

> <PUBCHEM_CONFORMER_DIVERSEORDER>
1
26
14
32
28
5
18
10
23
21
27
15
30
2
16
7
33
4
9
25
3
11
8
22
24
29
19
12
6
13
20
31
17

> <PUBCHEM_CONFORMER_ID>
268600000001

> <PUBCHEM_CONFORMER_RMSD>
0.6

> <PUBCHEM_COORDINATE_TYPE>
2
5
10

> <PUBCHEM_EFFECTIVE_ROTOR_COUNT>
3

> <PUBCHEM_FEATURE_SELFOVERLAP>
10.148

> <PUBCHEM_HEAVY_ATOM_COUNT>
9

> <PUBCHEM_ISOTOPIC_ATOM_COUNT>
0

> <PUBCHEM_MMFF94_ENERGY>
5.7376

> <PUBCHEM_MMFF94_PARTIAL_CHARGES>
10
1 -0.57
14 0.15
2 0.14
3 0.06
4 -0.29
5 -0.28
6 0.45
7 0.14
8 0.14
9 0.06

> <PUBCHEM_PHARMACOPHORE_FEATURES>
2
1 1 acceptor
3 5 7 8 hydrophobe

> <PUBCHEM_SHAPE_FINGERPRINT>
10857977 72 17822014224550642393
11062470 55 14836405834807546786
12932764 1 18409726253102068334
14325111 11 17775287179029615955
14390081 3 18335414651726714925
18186145 218 18131354089810019622
18342897 55 16702013236314476496
190213 19 16588020212473131586
20211469 26 12612748021324831265
20645464 45 18411412934008921290
21028194 46 18260548896306651491
21119208 17 14476967791369594176
21293036 1 17846774135159391171
3248919 1 17346590876751697462

> <PUBCHEM_SHAPE_MULTIPOLES>
179.35
6.36
1.03
0.97
0.72
0.28
-0.03
0.89
1.18
-0.56
-0.11
0.46
0.03
0.53

> <PUBCHEM_SHAPE_SELFOVERLAP>
328.033

> <PUBCHEM_SHAPE_VOLUME>
114.9

> <RelativeEnergy>
1.27367

> <StereoisomerIndex>
1

> <TautomerIndex>
1

> <POSE_NUMBER>
1

> <LibDockScore>
74.6953

> <HotSpots>
6.21,10.67,0.94,A,74,7
6.61,11.87,-1.46,A,53,8
8.41,8.07,-4.86,A,38,9

> <-In-Situ Starting Energy>
-64.1568281

> <-In-Situ Final Energy>
9.39042893

> <In-Situ Gradient>
0.0006412873948

$$$$
11469920
  SciTegic09142310043D

 38 37  0  0  0  0            999 V2000
   13.2483    2.4341   -5.7799 O   0  5  0  1  0  0
   11.2117    3.0566   -6.0764 O   0  0  0  1  0  0
    6.8496   10.4119   -3.4345 C   0  0  0  1  0  0
    8.1304    9.6426   -3.7552 C   0  0  0  1  0  0
    6.8998   10.9979   -2.0151 C   0  0  0  1  0  0
    7.9376    8.1864   -4.1449 C   0  0  0  1  0  0
    5.9661   10.3191   -1.0168 C   0  0  0  1  0  0
    9.3317    7.7041   -4.5024 C   0  0  0  1  0  0
    9.4583    6.3064   -5.0791 C   0  0  0  1  0  0
    6.0346    8.7928   -1.1677 C   0  0  0  1  0  0
    6.3528   10.6497    0.4006 C   0  0  0  1  0  0
   10.8653    6.0111   -5.6738 C   0  0  0  1  0  0
   11.8849    5.5167   -4.6694 C   0  0  0  1  0  0
   12.5853    4.3643   -4.6715 C   0  0  0  1  0  0
   12.3275    3.2248   -5.5868 C   0  0  0  1  0  0
    6.7056   11.2106   -4.1624 H   0  0
    6.0017    9.7481   -3.5761 H   0  0
    8.6488   10.1267   -4.5707 H   0  0
    8.8458    9.6718   -2.9329 H   0  0
    6.7651   12.0778   -2.0235 H   0  0
    7.8928   10.8354   -1.6187 H   0  0
    7.2520    8.0897   -4.9846 H   0  0
    7.5249    7.6145   -3.3165 H   0  0
    4.9727   10.7254   -1.1150 H   0  0
    9.7062    8.3856   -5.2657 H   0  0
    9.9457    7.8155   -3.6105 H   0  0
    8.6872    6.3441   -5.8279 H   0  0
    9.1555    5.5057   -4.4074 H   0  0
    7.0763    8.5757   -1.3235 H   0  0
    5.5463    8.3698   -2.0389 H   0  0
    5.6777    8.2587   -0.2870 H   0  0
    6.6164   11.6972    0.5484 H   0  0
    7.1876   10.0218    0.6649 H   0  0
    5.5476   10.3735    1.0668 H   0  0
   10.8497    5.3200   -6.5051 H   0  0
   11.2403    6.8926   -6.1884 H   0  0
   12.0851    6.1787   -3.8516 H   0  0
   13.3818    4.2388   -3.9614 H   0  0
  1 15  1  0
  2 15  2  0
  3  4  1  0
  3  5  1  0
  4  6  1  0
  5  7  1  0
  6  8  1  0
  7 10  1  0
  7 11  1  0
  8  9  1  0
  9 12  1  0
 12 13  1  0
 13 14  2  0
 14 15  1  0
  3 16  1  0
  3 17  1  0
  4 18  1  0
  4 19  1  0
  5 20  1  0
  5 21  1  0
  6 22  1  0
  6 23  1  0
  7 24  1  0
  8 25  1  0
  8 26  1  0
  9 27  1  0
  9 28  1  0
 10 29  1  0
 10 30  1  0
 10 31  1  0
 11 32  1  0
 11 33  1  0
 11 34  1  0
 12 35  1  0
 12 36  1  0
 13 37  1  0
 14 38  1  0
M  CHG  1   1  -1
M  END
> <Name>
11469920

> <Binding Energy>
-9.4048

> <Ligand Energy>
23.5994

> <Protein Energy>
-7801.1566

> <Complex Energy>
-7786.9621

> <Complex Entropy>
-31.4781

> <Protein Entropy>
-31.4717

> <Ligand Entropy>
-18.8337

> <Entropic Energy>
18.8273

> <AbsoluteEnergy>
19.9962

> <ConfNumber>
16

> <Ionization pH>
7.5

> <IonizationIndex>
1

> <MOL_NUMBER>
3

> <NumberOfIonizations>
1

> <NumberOfStereoisomers>
1

> <NumberOfTautomers>
1

> <PUBCHEM_ATOM_DEF_STEREO_COUNT>
0

> <PUBCHEM_ATOM_UDEF_STEREO_COUNT>
0

> <PUBCHEM_BOND_DEF_STEREO_COUNT>
1

> <PUBCHEM_BOND_UDEF_STEREO_COUNT>
0

> <PUBCHEM_CACTVS_TAUTO_COUNT>
1

> <PUBCHEM_COMPONENT_COUNT>
1

> <PUBCHEM_COMPOUND_CID>
11469920

> <PUBCHEM_CONFORMER_DIVERSEORDER>
1
36
6
42
14
27
204
80
142
191
173
112
207
18
49
119
10
25
60
52
17
223
15
8
104
202
152
7
16
41
179
209
20
216
53
59
146
29
76
137
22
199
132
38
122
5
129
48
107
95
110
150
31
11
163
58
147
225
83
74
175
178
2
168
102
128
67
88
219
33
170
135
228
50
226
47
43
91
144
136
57
224
105
139
218
210
96
64
133
121
188
185
124
21
90
51
197
183
145
87
4
66
161
19
227
157
63
141
45
217
40
192
32
65
70
73
186
13
187
23
100
109
172
213
159
93
113
106
85
34
214
62
71
130
56
44
193
61
162
215
111
24
155
3
98
37
46
171
103
148
69
165
206
115
79
212
116
166
94
190
28
208
167
127
9
12
123
84
125
101
55
39
108
182
176
140
198
68
203
54
30
149
153
117
180
81
26
138
118
196
160
151
143
169
156
222
82
120
205
77
78
220
35
164
114
158
75
86
131
177
200
92
195
194
211
229
221
184
126
189
134
99
72
89
201
97
174
181
154

> <PUBCHEM_CONFORMER_ID>
00AF046000000001

> <PUBCHEM_CONFORMER_RMSD>
0.8

> <PUBCHEM_COORDINATE_TYPE>
2
5
10

> <PUBCHEM_EFFECTIVE_ROTOR_COUNT>
9

> <PUBCHEM_FEATURE_SELFOVERLAP>
20.353

> <PUBCHEM_HEAVY_ATOM_COUNT>
15

> <PUBCHEM_ISOTOPIC_ATOM_COUNT>
0

> <PUBCHEM_MMFF94_ENERGY>
15.9796

> <PUBCHEM_MMFF94_PARTIAL_CHARGES>
9
1 -0.65
12 0.14
13 -0.29
14 -0.14
15 0.71
2 -0.57
37 0.15
38 0.15
39 0.5

> <PUBCHEM_PHARMACOPHORE_FEATURES>
4
1 1 acceptor
1 2 acceptor
3 1 2 15 anion
3 7 10 11 hydrophobe

> <PUBCHEM_SHAPE_FINGERPRINT>
10354089 29 16805042917581588324
10730089 173 18412544297209350265
10803635 8 17203605999635540471
10912923 1 17895462709113673298
117890 112 18335419084576011128
11858739 19 17560806507410752078
12091667 2 18411981394405747139
12555020 224 14405181785509822757
12596602 18 17167860859484140049
12670543 26 18060139825712539850
13167372 99 18333447630252665708
13288520 33 9727631713986668475
13533116 47 17023173887334635658
13668630 136 14261350271275891837
13862211 1 12967132701032375094
13955234 65 16515949403770342264
13964095 4 18343304756195472070
1420 363 14045744850125978862
14251752 14 18130787837311714222
14251764 18 17676206888227527283
14573314 32 18202849837859409558
15048467 5 18261109673048779992
15183329 4 18272374135848454250
15501527 16 18411139126134266579
15716309 27 11746936494800148385
15778101 99 18341896264947320073
17834072 33 18343018930364025998
17834072 8 17632576054338186210
17834076 25 18187080663489691106
18222031 100 13973965407171654834
19489759 90 18343300375091518251
20281389 69 17749102283733492180
20526848 3 18337392643729640169
20621476 30 12031781495993627109
20621476 66 18339928121737973769
20621476 8 18187080612292871030
20645477 56 18341892983539753235
20645477 70 16845584080372621958
20767249 213 18333449833465127313
220451 1 16805322202141179546
22061861 79 16845578604125431660
22224240 67 15719393932603761097
23081809 10 18114174268198071394
23402539 116 18343578559827803231
23402655 69 18410570704134462986
23536379 177 18411699885554406378
23559900 14 17417801881064043235
29717793 49 14189579645852119600
300161 21 17676198087422897450
3014965 18 18059577945612527910
42788 4 18408884061992715242
441001 317 18411981364741402609
531348 171 17632578206396759967
542803 24 18113897174029713954
57483677 66 10735886066721238332
7062679 6 18335422352650867813
7495541 125 10737290147381128750

> <PUBCHEM_SHAPE_MULTIPOLES>
296.95
18.62
1.48
0.87
8.33
0.49
0
5.8
-3.16
-1.14
-0.1
0.46
-0.08
-0.41

> <PUBCHEM_SHAPE_SELFOVERLAP>
550.177

> <PUBCHEM_SHAPE_VOLUME>
186.6

> <RelativeEnergy>
4.3127

> <StereoisomerIndex>
1

> <TautomerIndex>
1

> <POSE_NUMBER>
1

> <LibDockScore>
85.6785

> <HotSpots>
7.01,11.07,-2.85,A,47,5
8.41,8.07,-4.86,A,38,6
13.41,5.07,-3.25,A,44,14

> <-In-Situ Starting Energy>
-4042.38034

> <-In-Situ Final Energy>
-10.5731721

> <In-Situ Gradient>
0.0009601954682

$$$$
3625947
  SciTegic09142310043D

 62 64  0  0  0  0            999 V2000
   16.8292   -1.8391  -15.2740 O   0  0  0  1  0  0
   15.4708   -2.3541  -19.7337 O   0  0  0  1  0  0
   12.8670   -1.9196  -12.3943 O   0  5  0  1  0  0
   12.2873   -3.0146  -14.1635 O   0  0  0  1  0  0
   16.9461   -2.3256  -17.9867 N   0  0  0  1  0  0
   14.6472   -2.4771  -15.3823 N   0  0  0  1  0  0
   17.1854   -1.2283  -21.4493 N   0  0  0  1  0  0
   16.2041   -3.2325  -17.1146 C   0  0  1  1  0  0
   17.0652   -4.4907  -16.8609 C   0  0  0  1  0  0
   14.1776   -1.5548  -14.3513 C   0  0  1  1  0  0
   15.9222   -2.4601  -15.8146 C   0  0  0  1  0  0
   17.5020   -1.1077  -20.0305 C   0  0  2  1  0  0
   13.7260   -0.2473  -15.0324 C   0  0  0  1  0  0
   16.5208   -1.9842  -19.2219 C   0  0  0  1  0  0
   16.2391   -5.6874  -16.4637 C   0  0  0  1  0  0
   17.4713    0.3742  -19.6205 C   0  0  0  1  0  0
   13.1706    0.7846  -14.0797 C   0  0  0  1  0  0
   18.0043    0.5999  -18.2331 C   0  0  0  1  0  0
   13.0206   -2.2147  -13.5788 C   0  0  0  1  0  0
   15.8465   -5.8780  -15.1417 C   0  0  0  1  0  0
   15.8150   -6.5970  -17.4306 C   0  0  0  1  0  0
   11.8117    0.8043  -13.7789 C   0  0  0  1  0  0
   13.9995    1.7358  -13.4928 C   0  0  0  1  0  0
   17.1414    0.8911  -17.1819 C   0  0  0  1  0  0
   19.3668    0.4772  -17.9785 C   0  0  0  1  0  0
   15.0180   -6.9395  -14.7983 C   0  0  0  1  0  0
   14.9773   -7.6531  -17.0928 C   0  0  0  1  0  0
   14.5724   -7.8215  -15.7750 C   0  0  0  1  0  0
   11.2852    1.7591  -12.9183 C   0  0  0  1  0  0
   13.4789    2.6924  -12.6284 C   0  0  0  1  0  0
   17.6328    1.0394  -15.8922 C   0  0  0  1  0  0
   19.8587    0.6164  -16.6880 C   0  0  0  1  0  0
   12.1199    2.7072  -12.3428 C   0  0  0  1  0  0
   18.9897    0.8944  -15.6425 C   0  0  0  1  0  0
   17.7448   -1.8741  -17.5883 H   0  0
   13.9766   -3.1338  -15.7433 H   0  0
   16.2009   -0.9861  -21.5696 H   0  0
   17.2256   -2.2070  -21.6933 H   0  0
   15.2691   -3.4777  -17.6155 H   0  0
   17.6112   -4.7490  -17.7690 H   0  0
   17.8271   -4.3007  -16.1025 H   0  0
   14.9998   -1.3698  -13.6565 H   0  0
   18.5067   -1.5116  -19.9007 H   0  0
   14.5632    0.1900  -15.5755 H   0  0
   12.9713   -0.4790  -15.7815 H   0  0
   18.0788    0.9557  -20.3146 H   0  0
   16.4613    0.7715  -19.7006 H   0  0
   16.1595   -5.1801  -14.3781 H   0  0
   16.1143   -6.4651  -18.4615 H   0  0
   11.1702    0.0448  -14.2012 H   0  0
   15.0578    1.7242  -13.7028 H   0  0
   16.0785    0.9770  -17.3570 H   0  0
   20.0488    0.2560  -18.7867 H   0  0
   14.7038   -7.0575  -13.7711 H   0  0
   14.6257   -8.3201  -17.8669 H   0  0
   13.8994   -8.6225  -15.5080 H   0  0
   10.2301    1.7493  -12.6870 H   0  0
   14.1350    3.4185  -12.1708 H   0  0
   16.9536    1.2331  -15.0759 H   0  0
   20.9161    0.5036  -16.4968 H   0  0
   11.7147    3.4442  -11.6644 H   0  0
   19.3632    0.9911  -14.6334 H   0  0
  1 11  2  0
  2 14  2  0
  3 19  1  0
  4 19  2  0
  5  8  1  0
  5 14  1  0
  6 10  1  0
  6 11  1  0
  7 12  1  0
  8  9  1  0
  8 11  1  0
  9 15  1  0
 10 13  1  0
 10 19  1  0
 12 14  1  0
 12 16  1  0
 13 17  1  0
 15 20  2  0
 15 21  1  0
 16 18  1  0
 17 22  2  0
 17 23  1  0
 18 24  2  0
 18 25  1  0
 20 26  1  0
 21 27  2  0
 22 29  1  0
 23 30  2  0
 24 31  1  0
 25 32  2  0
 26 28  2  0
 27 28  1  0
 29 33  2  0
 30 33  1  0
 31 34  2  0
 32 34  1  0
  5 35  1  0
  6 36  1  0
  7 37  1  0
  7 38  1  0
  8 39  1  0
  9 40  1  0
  9 41  1  0
 10 42  1  0
 12 43  1  0
 13 44  1  0
 13 45  1  0
 16 46  1  0
 16 47  1  0
 20 48  1  0
 21 49  1  0
 22 50  1  0
 23 51  1  0
 24 52  1  0
 25 53  1  0
 26 54  1  0
 27 55  1  0
 28 56  1  0
 29 57  1  0
 30 58  1  0
 31 59  1  0
 32 60  1  0
 33 61  1  0
 34 62  1  0
M  CHG  1   3  -1
M  END
> <Name>
3625947

> <Binding Energy>
-56.2242

> <Ligand Energy>
-60.3668

> <Protein Energy>
-7801.1566

> <Complex Energy>
-7917.7477

> <Complex Entropy>
-31.4918

> <Protein Entropy>
-31.4717

> <Ligand Entropy>
-20.5784

> <Entropic Energy>
20.5583

> <AbsoluteEnergy>
47.6416

> <ConfNumber>
29

> <Ionization pH>
7.11_DD

> <IonizationIndex>
2

> <MOL_NUMBER>
11

> <NumberOfIonizations>
2

> <NumberOfStereoisomers>
1

> <NumberOfTautomers>
1

> <PUBCHEM_ATOM_DEF_STEREO_COUNT>
0

> <PUBCHEM_ATOM_UDEF_STEREO_COUNT>
3

> <PUBCHEM_BOND_DEF_STEREO_COUNT>
0

> <PUBCHEM_BOND_UDEF_STEREO_COUNT>
0

> <PUBCHEM_CACTVS_TAUTO_COUNT>
4

> <PUBCHEM_COMPONENT_COUNT>
1

> <PUBCHEM_COMPOUND_CID>
3625947

> <PUBCHEM_CONFORMER_DIVERSEORDER>
1
301
191
210
120
453
65
331
346
305
244
61
424
226
73
340
276
41
491
228
243
62
14
197
169
273
402
193
34
6
328
202
436
19
9
149
201
353
312
260
391
8
455
322
206
358
159
348
150
326
357
422
36
299
410
459
283
259
160
320
377
170
144
242
280
189
68
59
218
155
108
192
519
110
104
92
109
32
224
497
493
178
364
247
254
66
490
122
257
428
33
31
138
28
296
443
292
55
95
96
112
316
240
156
37
214
106
53
307
152
24
345
80
136
394
250
116
153
97
363
26
27
42
520
229
419
302
47
119
161
94
281
319
323
343
105
211
89
418
223
83
471
128
54
5
406
251
447
17
199
30
21
371
461
148
79
124
11
383
342
194
209
2
125
279
392
317
12
196
126
330
90
46
29
347
313
482
64
275
78
70
475
268
140
84
40
117
329
368
103
77
231
23
20
164
10
370
435
98
16
22
63
4
147
7
249
289
76
102
57
49
167
15
3
91
45

> <PUBCHEM_CONFORMER_ID>
003753DB00000001

> <PUBCHEM_CONFORMER_RMSD>
1.4

> <PUBCHEM_COORDINATE_TYPE>
2
5
10

> <PUBCHEM_EFFECTIVE_ROTOR_COUNT>
13

> <PUBCHEM_FEATURE_SELFOVERLAP>
60.957

> <PUBCHEM_HEAVY_ATOM_COUNT>
34

> <PUBCHEM_ISOTOPIC_ATOM_COUNT>
0

> <PUBCHEM_MMFF94_ENERGY>
78.3965

> <PUBCHEM_MMFF94_PARTIAL_CHARGES>
54
1 -0.57
10 0.36
11 0.57
12 0.33
13 0.14
14 0.57
15 -0.14
16 0.14
17 -0.14
18 -0.14
19 0.66
2 -0.57
20 -0.15
21 -0.15
22 -0.15
23 -0.15
24 -0.15
25 -0.15
26 -0.15
27 -0.15
28 -0.15
29 -0.15
3 -0.65
30 -0.15
31 -0.15
32 -0.15
33 -0.15
34 -0.15
39 0.37
4 -0.57
41 0.37
46 0.15
47 0.15
48 0.36
49 0.36
5 -0.73
50 0.15
51 0.15
52 0.15
53 0.15
54 0.15
55 0.15
56 0.15
57 0.15
58 0.15
59 0.15
6 -0.73
60 0.15
61 0.15
62 0.15
63 0.5
7 -0.99
8 0.36
9 0.14

> <PUBCHEM_PHARMACOPHORE_FEATURES>
12
1 1 acceptor
1 2 acceptor
1 3 acceptor
1 4 acceptor
1 5 donor
1 6 donor
1 7 cation
1 7 donor
3 3 4 19 anion
6 15 20 21 26 27 28 rings
6 17 22 23 29 30 33 rings
6 18 24 25 31 32 34 rings

> <PUBCHEM_SHAPE_FINGERPRINT>
11115154 58 17771043185075684719
11445158 3 17169299054778917173
11578080 2 16628870381055303828
12156800 1 17979114649092688879
12788726 201 18270386300150200162
13615921 28 18054496182919554493
13636023 51 17687759237720705369
13692115 46 18050886422022244550
140371 6 18193559089359116596
14251757 5 17970337325288859574
16114785 44 18341058492430978344
20600515 1 17686862379649813032
20775438 99 16181531073113096615
255183 313 18338241466563599096
35225 105 17129551598525098957
469060 322 16153712071529753946
50677037 204 18339079406083122832
563151 248 18130241371121151441
563151 40 18269288880366695582
57527306 92 18129652136605994327
9896288 288 18129398020465977409

> <PUBCHEM_SHAPE_MULTIPOLES>
661.28
9.68
6.77
2.6
18.3
2.93
0.46
-4.81
1.02
-5.92
-3.3
-3.16
0.41
-3.71

> <PUBCHEM_SHAPE_SELFOVERLAP>
1398.466

> <PUBCHEM_SHAPE_VOLUME>
366.4

> <RelativeEnergy>
2.77732

> <StereoisomerIndex>
1

> <TautomerIndex>
1

> <POSE_NUMBER>
9

> <LibDockScore>
120.5409

> <HotSpots>
9.21,3.67,-12.86,A,26,22
13.01,-7.53,-14.86,A,17,28
11.21,4.87,-14.65,A,18,30

> <-In-Situ Starting Energy>
-11867.4448

> <-In-Situ Final Energy>
68.180944

> <In-Situ Gradient>
0.09692551957

$$$$
4427709
  SciTegic09142310043D

 46 48  0  0  0  0            999 V2000
   10.9515    5.9706   -6.3744 O   0  0  0  1  0  0
   13.6227    4.5848   -2.5357 O   0  5  0  1  0  0
   12.4314    6.2045   -3.2546 O   0  0  0  1  0  0
   13.0960    5.3187   -5.8988 N   0  0  0  1  0  0
   13.0582    5.6019  -12.5032 N   0  0  0  1  0  0
   13.9114    5.3778   -8.3392 N   0  0  0  1  0  0
   11.5553    5.7273   -9.0964 C   0  0  0  1  0  0
   12.6692    6.1235   -8.1039 C   0  0  1  1  0  0
   12.0230    5.4428  -10.5133 C   0  0  0  1  0  0
   11.5085    4.4124  -11.3809 C   0  0  0  1  0  0
   12.7750    4.4261   -4.7893 C   0  0  1  1  0  0
   12.1348    5.8448   -6.6764 C   0  0  0  1  0  0
   12.1769    4.5338  -12.6201 C   0  0  0  1  0  0
   13.6094    3.1427   -4.9612 C   0  0  0  1  0  0
   13.0095    6.1097  -11.2458 C   0  0  0  1  0  0
   10.5675    3.4356  -11.2025 C   0  0  0  1  0  0
   13.5583    2.5986   -6.3671 C   0  0  0  1  0  0
   11.8833    3.6695  -13.6408 C   0  0  0  1  0  0
   12.9720    5.1242   -3.4269 C   0  0  0  1  0  0
   10.2693    2.5478  -12.2336 C   0  0  0  1  0  0
   10.9324    2.6629  -13.4543 C   0  0  0  1  0  0
   12.3384    2.3745   -7.0002 C   0  0  0  1  0  0
   14.7339    2.3345   -7.0634 C   0  0  0  1  0  0
   12.2922    1.9367   -8.3162 C   0  0  0  1  0  0
   14.6924    1.8966   -8.3805 C   0  0  0  1  0  0
   13.4708    1.7071   -9.0117 C   0  0  0  1  0  0
   14.0224    5.4010   -6.2663 H   0  0
   13.6610    5.9107  -13.2146 H   0  0
   14.2276    5.4828   -9.2931 H   0  0
   13.7401    4.3847   -8.2072 H   0  0
   10.8011    6.5133   -9.1323 H   0  0
   11.0529    4.8270   -8.7394 H   0  0
   12.9009    7.1856   -8.1885 H   0  0
   11.7153    4.1765   -4.8609 H   0  0
   14.6448    3.3430   -4.6880 H   0  0
   13.2528    2.3692   -4.2878 H   0  0
   13.6255    6.9113  -10.8681 H   0  0
   10.0611    3.3513  -10.2541 H   0  0
   12.3923    3.7673  -14.5882 H   0  0
    9.5321    1.7724  -12.0785 H   0  0
   10.7087    1.9655  -14.2462 H   0  0
   11.4160    2.5604   -6.4712 H   0  0
   15.6913    2.4831   -6.5833 H   0  0
   11.3372    1.7763   -8.7952 H   0  0
   15.6134    1.7033   -8.9122 H   0  0
   13.4386    1.3735  -10.0387 H   0  0
  1 12  2  0
  2 19  1  0
  3 19  2  0
  4 11  1  0
  4 12  1  0
  5 13  1  0
  5 15  1  0
  6  8  1  0
  7  8  1  0
  7  9  1  0
  8 12  1  0
  9 10  1  0
  9 15  2  0
 10 13  1  0
 10 16  2  0
 11 14  1  0
 11 19  1  0
 13 18  2  0
 14 17  1  0
 16 20  1  0
 17 22  2  0
 17 23  1  0
 18 21  1  0
 20 21  2  0
 22 24  1  0
 23 25  2  0
 24 26  2  0
 25 26  1  0
  4 27  1  0
  5 28  1  0
  6 29  1  0
  6 30  1  0
  7 31  1  0
  7 32  1  0
  8 33  1  0
 11 34  1  0
 14 35  1  0
 14 36  1  0
 15 37  1  0
 16 38  1  0
 18 39  1  0
 20 40  1  0
 21 41  1  0
 22 42  1  0
 23 43  1  0
 24 44  1  0
 25 45  1  0
 26 46  1  0
M  CHG  1   2  -1
M  END
> <Name>
4427709

> <Binding Energy>
-31.7839

> <Ligand Energy>
-18.3108

> <Protein Energy>
-7801.1566

> <Complex Energy>
-7851.2513

> <Complex Entropy>
-31.4834

> <Protein Entropy>
-31.4717

> <Ligand Entropy>
-19.7437

> <Entropic Energy>
19.7319

> <AbsoluteEnergy>
100.944

> <ConfNumber>
20

> <Ionization pH>
7.34_DDD

> <IonizationIndex>
2

> <MOL_NUMBER>
14

> <NumberOfIonizations>
2

> <NumberOfStereoisomers>
1

> <NumberOfTautomers>
1

> <PUBCHEM_ATOM_DEF_STEREO_COUNT>
0

> <PUBCHEM_ATOM_UDEF_STEREO_COUNT>
2

> <PUBCHEM_BOND_DEF_STEREO_COUNT>
0

> <PUBCHEM_BOND_UDEF_STEREO_COUNT>
0

> <PUBCHEM_CACTVS_TAUTO_COUNT>
2

> <PUBCHEM_COMPONENT_COUNT>
1

> <PUBCHEM_COMPOUND_CID>
4427709

> <PUBCHEM_CONFORMER_DIVERSEORDER>
1
181
362
250
332
288
208
185
325
242
19
172
317
209
155
331
15
402
253
218
324
381
301
366
356
348
364
111
249
389
41
355
311
200
395
100
67
145
156
174
274
45
25
298
363
36
91
141
385
150
83
102
315
248
212
387
57
264
132
94
205
115
360
79
164
247
125
178
263
383
313
352
16
304
227
373
32
53
254
328
392
279
314
376
400
365
77
241
55
82
237
170
357
393
287
10
390
8
64
194
85
219
399
63
207
308
334
286
221
5
271
38
354
277
339
88
163
50
246
154
382
284
282
179
388
239
204
223
104
46
97
2
144
13
127
283
44
225
358
129
190
33
120
135
220
134
147
329
240
6
31
229
307
351
17
262
198
245
235
101
14
142
92
275
238
22
202
299
99
39
30
18
21
312
131
403
336
261
234
340
280
210
169
146
139
182
309
224
213
37
231
103
195
186
353
54
29
26
316
98
148
344
175
310
121
294
342
404
192
230
65
166
173
236
183
89
167
374
228
232
51
171
401
272
375
52
128
20
56
35
159
160
369
48
378
27
345
343
290
289
184
71
72
267
391
322
370
189
244
380
188
110
226
321
386
68
346
384
12
337
341
42
93
396
398
361
112
359
296
305
165
211
201
187
40
118
276
122
114
58
176
75
216
338
78
24
318
74
266
4
191
152
320
157
49
76
133
177
3
199
196
86
81
214
260
303
335
300
215
251
73
233
113
84
11
90
87
327
243
347
105
323
368
126
149
140
9
255
292
130
70
60
257
306
330
137
34
66
203
61
43
302
258
281
319
270
372
69
259
47
119
293
117
349
158
256
7
80
59
397
162
108
252
206
268
28
371
273
377
367
151
291
107
222
116
350
109
217
295
168
379
62
197
265
96
180
394
106
278
136
95
297
269
285
333
138
161
23
123
326
193
124
153
143

> <PUBCHEM_CONFORMER_ID>
00438FBD00000001

> <PUBCHEM_CONFORMER_RMSD>
1

> <PUBCHEM_COORDINATE_TYPE>
2
5
10

> <PUBCHEM_EFFECTIVE_ROTOR_COUNT>
8

> <PUBCHEM_FEATURE_SELFOVERLAP>
61.049

> <PUBCHEM_HEAVY_ATOM_COUNT>
26

> <PUBCHEM_ISOTOPIC_ATOM_COUNT>
0

> <PUBCHEM_MMFF94_ENERGY>
48.8617

> <PUBCHEM_MMFF94_PARTIAL_CHARGES>
40
1 -0.57
11 0.36
12 0.57
13 -0.15
14 0.14
15 -0.3
16 -0.15
17 -0.14
18 -0.15
19 0.66
2 -0.65
20 -0.15
21 -0.15
22 -0.15
23 -0.15
24 -0.15
25 -0.15
26 -0.15
3 -0.57
33 0.15
34 0.37
35 0.27
36 0.15
37 0.36
38 0.36
39 0.15
4 -0.73
40 0.15
41 0.15
42 0.15
43 0.15
44 0.15
45 0.15
46 0.15
47 0.5
5 0.03
6 -0.99
7 0.18
8 0.33
9 -0.18

> <PUBCHEM_PHARMACOPHORE_FEATURES>
12
1 1 acceptor
1 2 acceptor
1 3 acceptor
1 4 donor
1 5 cation
1 5 donor
1 6 cation
1 6 donor
3 2 3 19 anion
5 5 9 10 13 15 rings
6 10 13 16 18 20 21 rings
6 17 22 23 24 25 26 rings

> <PUBCHEM_SHAPE_FINGERPRINT>
10369192 42 13698718206292111646
10906281 52 18042978747617413708
11646440 116 18342188751898860049
12422481 6 18192984933820559666
12788726 201 18336561430134767556
13177829 73 18412544288576905907
13583140 156 15985097518414480434
14251751 93 18336825308034075269
14347332 77 18198058282313923743
14466204 15 18409725166633507176
14790565 3 18335707134879133412
14955137 171 18263947521566950769
15420108 30 17768261115424725657
16752209 62 17967525749586714104
17349148 13 18201449115864392826
17492 89 18123753324714971807
19141452 34 18342742900952374036
192875 21 18269834392636824517
20775438 99 16330155337221300783
21304303 282 16197642874208342235
23402539 116 18413666915982413100
23559900 14 18060706100313403536
338550 245 18188497848331600500
3459 83 18199751340841048542
3493558 16 17704074031708465792
3680242 22 18261394391089867770
404807 14 16120247047922724990
445580 125 17916881131039685897
460360 51 18043542800633371656
59755656 215 18264208011359709790
6328613 192 18263371429599165972
633830 44 17749114425880220964
7226269 152 18260266339546788868

> <PUBCHEM_SHAPE_MULTIPOLES>
502.52
11.44
3.26
1.26
6.88
0.38
0.15
-0.19
-0.25
-1.16
-0.27
-0.26
-0.03
-0.8

> <PUBCHEM_SHAPE_SELFOVERLAP>
1083.471

> <PUBCHEM_SHAPE_VOLUME>
275.5

> <RelativeEnergy>
5.76563

> <StereoisomerIndex>
1

> <TautomerIndex>
1

> <POSE_NUMBER>
10

> <LibDockScore>
109.1029

> <HotSpots>
9.21,3.67,-12.86,A,26,16
11.21,4.87,-14.65,A,18,18
9.41,-1.33,-5.66,A,37,24

> <-In-Situ Starting Energy>
-39475.5241

> <-In-Situ Final Energy>
61.1186092

> <In-Situ Gradient>
0.0009738299967

$$$$
5280489
  SciTegic09142310043D

 96 97  0  0  0  0            999 V2000
   18.3653    1.3896  -19.5547 C   0  0  0  1  0  0
    6.9867    0.8918    1.4216 C   0  0  0  1  0  0
   18.7376    0.9294  -20.9816 C   0  0  0  1  0  0
    7.2321    2.3478    1.9617 C   0  0  0  1  0  0
   18.8669   -0.5846  -21.0874 C   0  0  0  1  0  0
    5.9962    3.1353    2.4491 C   0  0  0  1  0  0
   17.2998    0.4808  -18.9418 C   0  0  0  1  0  0
    5.8295    0.9685    0.4545 C   0  0  0  1  0  0
   17.5279   -1.2436  -20.7664 C   0  0  0  1  0  0
    4.7344    2.3868    2.0136 C   0  0  0  1  0  0
   16.8385   -0.6293  -19.5725 C   0  0  0  1  0  0
    4.9646    1.9665    0.5862 C   0  0  0  1  0  0
   17.8873    2.8510  -19.6845 C   0  0  0  1  0  0
   19.6189    1.3633  -18.6597 C   0  0  0  1  0  0
    8.2851    0.5569    0.7097 C   0  0  0  1  0  0
    6.7194   -0.2131    2.4553 C   0  0  0  1  0  0
   16.7900    0.9568  -17.6349 C   0  0  0  1  0  0
    6.0116    0.2296   -0.7892 C   0  0  0  1  0  0
   15.6034   -1.4215  -19.2151 C   0  0  0  1  0  0
    4.1102    2.5036   -0.5214 C   0  0  0  1  0  0
   16.3710    0.1818  -16.6145 C   0  0  0  1  0  0
    6.3336    0.9901   -1.8440 C   0  0  0  1  0  0
   15.9605    0.6542  -15.2770 C   0  0  0  1  0  0
    6.8297    0.5207   -3.1127 C   0  0  0  1  0  0
   16.4816    2.0241  -14.9018 C   0  0  0  1  0  0
    5.8315    0.5670   -4.2177 C   0  0  0  1  0  0
   15.2209   -0.1350  -14.4688 C   0  0  0  1  0  0
    8.1076    0.1742   -3.2112 C   0  0  0  1  0  0
   14.9003    0.1175  -13.0546 C   0  0  0  1  0  0
    8.6775   -0.1175   -4.5098 C   0  0  0  1  0  0
   13.8760   -0.4548  -12.3920 C   0  0  0  1  0  0
    9.6193   -0.9930   -4.8704 C   0  0  0  1  0  0
   13.6226   -0.3407  -10.9407 C   0  0  0  1  0  0
    9.6214   -1.3727   -6.2556 C   0  0  0  1  0  0
   14.8419    0.0655  -10.1389 C   0  0  0  1  0  0
    8.2721   -2.0411   -6.5329 C   0  0  0  1  0  0
   12.4219   -0.6739  -10.4174 C   0  0  0  1  0  0
   10.6942   -1.0219   -6.9938 C   0  0  0  1  0  0
   12.1007   -0.7880   -8.9849 C   0  0  0  1  0  0
   10.8772   -0.9663   -8.4495 C   0  0  0  1  0  0
   19.6623    1.4081  -21.3063 H   0  0
   17.9694    1.2537  -21.6860 H   0  0
    8.1196    2.4531    2.5805 H   0  0
    7.5550    2.9165    1.0863 H   0  0
   19.1944   -0.8725  -22.0867 H   0  0
   19.6312   -0.9397  -20.3961 H   0  0
    6.0096    3.3152    3.5172 H   0  0
    6.0373    4.1370    2.0259 H   0  0
   17.6869   -2.3086  -20.5944 H   0  0
   16.8703   -1.1629  -21.6312 H   0  0
    3.7856    2.8954    2.1709 H   0  0
    4.6563    1.5068    2.6435 H   0  0
   16.9126    2.8976  -20.1646 H   0  0
   18.5776    3.4381  -20.2912 H   0  0
   17.8141    3.3648  -18.7274 H   0  0
   20.4204    1.9703  -19.0820 H   0  0
   20.0011    0.3499  -18.5379 H   0  0
   19.4092    1.7535  -17.6635 H   0  0
    9.0708    0.6818    1.4437 H   0  0
    8.4906    1.2343   -0.1200 H   0  0
    8.3017   -0.4679    0.3366 H   0  0
    5.9670    0.0369    3.1991 H   0  0
    7.6244   -0.4701    2.9841 H   0  0
    6.3944   -1.1247    1.9556 H   0  0
   16.8151    2.0167  -17.4900 H   0  0
    5.9894   -0.8450   -0.8018 H   0  0
   14.9899   -0.9200  -18.4706 H   0  0
   15.8737   -2.4079  -18.8384 H   0  0
   14.9777   -1.5596  -20.0957 H   0  0
    3.9009    1.7654   -1.2939 H   0  0
    4.6463    3.2984   -1.0333 H   0  0
    3.2113    2.9163   -0.1112 H   0  0
   16.3287   -0.8849  -16.7326 H   0  0
    6.3204    2.0634   -1.7998 H   0  0
   16.0319    2.7896  -15.5335 H   0  0
   17.5647    2.0710  -15.0218 H   0  0
   16.2537    2.2883  -13.8715 H   0  0
    5.4547    1.5769   -4.2602 H   0  0
    5.0510   -0.1687   -4.0257 H   0  0
    6.2151    0.3624   -5.2061 H   0  0
   14.8127   -1.0527  -14.8537 H   0  0
    8.6636    0.0917   -2.3100 H   0  0
   15.5602    0.7911  -12.5439 H   0  0
    8.1230    0.3385   -5.2749 H   0  0
   13.1742   -1.0638  -12.9319 H   0  0
   10.2817   -1.5010   -4.1978 H   0  0
   15.0731    1.1179  -10.3051 H   0  0
   15.7127   -0.5244  -10.4276 H   0  0
   14.7128   -0.0679   -9.0684 H   0  0
    7.4127   -1.4558   -6.2183 H   0  0
    8.1232   -2.9283   -5.9287 H   0  0
    8.1798   -2.2984   -7.5844 H   0  0
   11.6002   -0.8791  -11.0754 H   0  0
   11.5735   -0.6916   -6.4674 H   0  0
   12.9330   -0.7252   -8.3113 H   0  0
    9.9966   -1.0421   -9.0590 H   0  0
  1  3  1  0
  1  7  1  0
  1 13  1  0
  1 14  1  0
  2  4  1  0
  2  8  1  0
  2 15  1  0
  2 16  1  0
  3  5  1  0
  4  6  1  0
  5  9  1  0
  6 10  1  0
  7 11  2  0
  7 17  1  0
  8 12  2  0
  8 18  1  0
  9 11  1  0
 10 12  1  0
 11 19  1  0
 12 20  1  0
 17 21  2  0
 18 22  2  0
 21 23  1  0
 22 24  1  0
 23 25  1  0
 23 27  2  0
 24 26  1  0
 24 28  2  0
 27 29  1  0
 28 30  1  0
 29 31  2  0
 30 32  2  0
 31 33  1  0
 32 34  1  0
 33 35  1  0
 33 37  2  0
 34 36  1  0
 34 38  2  0
 37 39  1  0
 38 40  1  0
 39 40  2  0
  3 41  1  0
  3 42  1  0
  4 43  1  0
  4 44  1  0
  5 45  1  0
  5 46  1  0
  6 47  1  0
  6 48  1  0
  9 49  1  0
  9 50  1  0
 10 51  1  0
 10 52  1  0
 13 53  1  0
 13 54  1  0
 13 55  1  0
 14 56  1  0
 14 57  1  0
 14 58  1  0
 15 59  1  0
 15 60  1  0
 15 61  1  0
 16 62  1  0
 16 63  1  0
 16 64  1  0
 17 65  1  0
 18 66  1  0
 19 67  1  0
 19 68  1  0
 19 69  1  0
 20 70  1  0
 20 71  1  0
 20 72  1  0
 21 73  1  0
 22 74  1  0
 25 75  1  0
 25 76  1  0
 25 77  1  0
 26 78  1  0
 26 79  1  0
 26 80  1  0
 27 81  1  0
 28 82  1  0
 29 83  1  0
 30 84  1  0
 31 85  1  0
 32 86  1  0
 35 87  1  0
 35 88  1  0
 35 89  1  0
 36 90  1  0
 36 91  1  0
 36 92  1  0
 37 93  1  0
 38 94  1  0
 39 95  1  0
 40 96  1  0
M  END
> <Name>
5280489

> <Binding Energy>
-0.1056

> <Ligand Energy>
164.0575

> <Protein Energy>
-7801.1566

> <Complex Energy>
-7637.2047

> <Complex Entropy>
-31.4909

> <Protein Entropy>
-31.4717

> <Ligand Entropy>
-21.6331

> <Entropic Energy>
21.614

> <AbsoluteEnergy>
93.5792

> <ConfNumber>
167

> <IonizationIndex>
1

> <MOL_NUMBER>
37

> <NumberOfIonizations>
1

> <NumberOfStereoisomers>
1

> <NumberOfTautomers>
1

> <PUBCHEM_ATOM_DEF_STEREO_COUNT>
0

> <PUBCHEM_ATOM_UDEF_STEREO_COUNT>
0

> <PUBCHEM_BOND_DEF_STEREO_COUNT>
9

> <PUBCHEM_BOND_UDEF_STEREO_COUNT>
0

> <PUBCHEM_CACTVS_TAUTO_COUNT>
1

> <PUBCHEM_COMPONENT_COUNT>
1

> <PUBCHEM_COMPOUND_CID>
5280489

> <PUBCHEM_CONFORMER_DIVERSEORDER>
1
28
7
40
17
35
41
14
3
16
36
15
19
4
45
46
9
18
34
43
20
21
27
32
48
38
44
37
11
30
6
47
12
29
24
25
42
2
33
39
23
26
5
10
31
22
8
13

> <PUBCHEM_CONFORMER_ID>
005092E900000001

> <PUBCHEM_CONFORMER_RMSD>
1.2

> <PUBCHEM_COORDINATE_TYPE>
2
5
10

> <PUBCHEM_EFFECTIVE_ROTOR_COUNT>
11.6

> <PUBCHEM_FEATURE_SELFOVERLAP>
40.601

> <PUBCHEM_HEAVY_ATOM_COUNT>
40

> <PUBCHEM_ISOTOPIC_ATOM_COUNT>
0

> <PUBCHEM_MMFF94_ENERGY>
107.3745

> <PUBCHEM_MMFF94_PARTIAL_CHARGES>
46
1 0.14
10 0.14
11 -0.28
12 -0.28
17 -0.15
18 -0.15
19 0.14
2 0.14
20 0.14
21 -0.15
22 -0.15
23 -0.14
24 -0.14
25 0.14
26 0.14
27 -0.15
28 -0.15
29 -0.15
30 -0.15
31 -0.15
32 -0.15
33 -0.14
34 -0.14
35 0.14
36 0.14
37 -0.15
38 -0.15
39 -0.15
40 -0.15
65 0.15
66 0.15
7 -0.14
73 0.15
74 0.15
8 -0.14
81 0.15
82 0.15
83 0.15
84 0.15
85 0.15
86 0.15
9 0.14
93 0.15
94 0.15
95 0.15
96 0.15

> <PUBCHEM_PHARMACOPHORE_FEATURES>
8
1 25 hydrophobe
1 26 hydrophobe
1 35 hydrophobe
1 36 hydrophobe
3 1 13 14 hydrophobe
3 2 15 16 hydrophobe
6 1 3 5 7 9 11 rings
6 2 4 6 8 10 12 rings

> <PUBCHEM_SHAPE_FINGERPRINT>
12013929 2 18335422383153138297
12559415 90 18060138726633780057
14251920 1 18335138695693295840
14251920 17 10375870775299229502
15061470 23 18343022207034222081
15274700 256 18131351904611325857
15343295 20 18201720666369187464
15343295 29 18261108566355856085
16728433 110 18273214232005797408
20580484 106 18131350804988421065
21057603 130 12103842355572574833
22082593 10 17418377991599697928
23581129 1 18409448098129516901
3092352 35 18409730695396029903
3991529 128 11025796500682120577
54131252 152 17989205976584578239
57828716 42 11167938066256400645
9663363 56 16702023084157593288

> <PUBCHEM_SHAPE_MULTIPOLES>
823.18
96.17
2.28
1.06
3.29
0.23
0.02
10.93
1.86
-0.93
-0.09
0.07
-0.07
-0.22

> <PUBCHEM_SHAPE_SELFOVERLAP>
1665.583

> <PUBCHEM_SHAPE_VOLUME>
477.9

> <RelativeEnergy>
12.9965

> <StereoisomerIndex>
1

> <TautomerIndex>
1

> <POSE_NUMBER>
1

> <LibDockScore>
141.2272

> <HotSpots>
6.01,1.67,2.54,A,83,6
6.61,-0.93,-0.06,A,65,15
9.41,-1.33,-5.66,A,37,32

> <-In-Situ Starting Energy>
-11564.5526

> <-In-Situ Final Energy>
-164.432131

> <In-Situ Gradient>
0.002246253784

$$$$
5280934
  SciTegic09142310043D

 49 48  0  0  0  0            999 V2000
    6.0258   11.2613   -0.5015 O   0  5  0  1  0  0
    6.8588   12.0686   -2.3024 O   0  0  0  1  0  0
    9.2105    7.9571   -4.5172 C   0  0  0  1  0  0
    9.3053    6.7364   -5.4572 C   0  0  0  1  0  0
    7.8312    8.2469   -3.9322 C   0  0  0  1  0  0
   10.7178    6.6265   -6.1407 C   0  0  0  1  0  0
    7.8514    9.5840   -3.1869 C   0  0  0  1  0  0
   11.1573    6.1727   -7.5572 C   0  0  0  1  0  0
    6.7296    9.6837   -2.1552 C   0  0  0  1  0  0
   12.6453    6.3632   -7.7227 C   0  0  0  1  0  0
    6.5413   11.1066   -1.6057 C   0  0  0  1  0  0
   13.4800    5.5416   -8.3777 C   0  0  0  1  0  0
   13.0757    4.5624   -9.4440 C   0  0  0  1  0  0
   12.7961    3.1624   -8.9637 C   0  0  0  1  0  0
   11.8210    2.3739   -9.4579 C   0  0  0  1  0  0
   10.8745    2.7703  -10.5645 C   0  0  0  1  0  0
   11.5717    2.8709  -11.8997 C   0  0  0  1  0  0
   11.1254    2.6532  -13.1532 C   0  0  0  1  0  0
    9.7450    2.3827  -13.6992 C   0  0  0  1  0  0
    8.5737    2.3539  -12.7148 C   0  0  0  1  0  0
    9.8839    7.8545   -3.6702 H   0  0
    9.5212    8.8480   -5.0624 H   0  0
    8.4738    6.9332   -6.1132 H   0  0
    9.0677    5.8292   -4.9023 H   0  0
    7.5372    7.4551   -3.2481 H   0  0
    7.0717    8.2792   -4.7141 H   0  0
   10.8955    7.6637   -6.3436 H   0  0
   11.4317    6.2256   -5.4201 H   0  0
    8.8066    9.7479   -2.6858 H   0  0
    7.7411   10.3690   -3.9325 H   0  0
   10.9576    5.1221   -7.7496 H   0  0
   10.6839    6.7766   -8.3307 H   0  0
    5.8147    9.3800   -2.6461 H   0  0
    6.8980    8.9971   -1.3261 H   0  0
   13.0730    7.1617   -7.1437 H   0  0
   14.5405    5.6691   -8.2691 H   0  0
   12.1986    4.9543   -9.9565 H   0  0
   13.8667    4.5330  -10.1936 H   0  0
   13.3719    2.8336   -8.1180 H   0  0
   11.6482    1.4053   -9.0255 H   0  0
   10.4569    3.7476  -10.3240 H   0  0
   10.0325    2.0841  -10.5921 H   0  0
   12.6278    3.0494  -11.8014 H   0  0
   11.8603    2.6988  -13.9366 H   0  0
    9.7726    1.4417  -14.2441 H   0  0
    9.5339    3.1449  -14.4478 H   0  0
    8.6197    1.4760  -12.0706 H   0  0
    7.6239    2.3086  -13.2481 H   0  0
    8.5591    3.2510  -12.0959 H   0  0
  1 11  1  0
  2 11  2  0
  3  4  1  0
  3  5  1  0
  4  6  1  0
  5  7  1  0
  6  8  1  0
  7  9  1  0
  8 10  1  0
  9 11  1  0
 10 12  2  0
 12 13  1  0
 13 14  1  0
 14 15  2  0
 15 16  1  0
 16 17  1  0
 17 18  2  0
 18 19  1  0
 19 20  1  0
  3 21  1  0
  3 22  1  0
  4 23  1  0
  4 24  1  0
  5 25  1  0
  5 26  1  0
  6 27  1  0
  6 28  1  0
  7 29  1  0
  7 30  1  0
  8 31  1  0
  8 32  1  0
  9 33  1  0
  9 34  1  0
 10 35  1  0
 12 36  1  0
 13 37  1  0
 13 38  1  0
 14 39  1  0
 15 40  1  0
 16 41  1  0
 16 42  1  0
 17 43  1  0
 18 44  1  0
 19 45  1  0
 19 46  1  0
 20 47  1  0
 20 48  1  0
 20 49  1  0
M  CHG  1   1  -1
M  END
> <Name>
5280934

> <Binding Energy>
-82.7481

> <Ligand Energy>
65.1169

> <Protein Energy>
-7801.1566

> <Complex Energy>
-7818.7878

> <Complex Entropy>
-31.4806

> <Protein Entropy>
-31.4717

> <Ligand Entropy>
-19.8455

> <Entropic Energy>
19.8365

> <AbsoluteEnergy>
41.553

> <ConfNumber>
238

> <Ionization pH>
7.5

> <IonizationIndex>
1

> <MOL_NUMBER>
65

> <NumberOfIonizations>
1

> <NumberOfStereoisomers>
1

> <NumberOfTautomers>
1

> <PUBCHEM_ATOM_DEF_STEREO_COUNT>
0

> <PUBCHEM_ATOM_UDEF_STEREO_COUNT>
0

> <PUBCHEM_BOND_DEF_STEREO_COUNT>
3

> <PUBCHEM_BOND_UDEF_STEREO_COUNT>
0

> <PUBCHEM_CACTVS_TAUTO_COUNT>
1

> <PUBCHEM_COMPONENT_COUNT>
1

> <PUBCHEM_COMPOUND_CID>
5280934

> <PUBCHEM_CONFORMER_DIVERSEORDER>
1
4
51
55
19
56
35
72
15
67
20
11
78
69
46
83
27
8
21
34
10
71
32
77
33
64
28
7
42
14
17
47
76
6
29
48
59
66
62
60
73
30
63
16
75
61
54
68
24
3
36
13
58
25
70
86
23
38
37
52
87
84
74
50
82
9
44
22
65
57
49
26
85
18
12
39
5
79
43
81
31
40
2
45
41
53
80

> <PUBCHEM_CONFORMER_ID>
005094A600000001

> <PUBCHEM_CONFORMER_RMSD>
1.4

> <PUBCHEM_COORDINATE_TYPE>
2
5
10

> <PUBCHEM_EFFECTIVE_ROTOR_COUNT>
13

> <PUBCHEM_FEATURE_SELFOVERLAP>
20.355

> <PUBCHEM_HEAVY_ATOM_COUNT>
20

> <PUBCHEM_ISOTOPIC_ATOM_COUNT>
0

> <PUBCHEM_MMFF94_ENERGY>
10.2711

> <PUBCHEM_MMFF94_PARTIAL_CHARGES>
21
1 -0.65
10 -0.29
11 0.66
12 -0.29
13 0.28
14 -0.29
15 -0.29
16 0.28
17 -0.29
18 -0.29
19 0.14
2 -0.57
35 0.15
36 0.15
39 0.15
40 0.15
43 0.5
44 0.15
45 0.15
8 0.14
9 0.06

> <PUBCHEM_PHARMACOPHORE_FEATURES>
4
1 1 acceptor
1 2 acceptor
1 20 hydrophobe
3 1 2 11 anion

> <PUBCHEM_SHAPE_FINGERPRINT>
10693767 8 17482251014438567359
12038231 1 18266462001305944430
12788726 201 18340777051825042064
14117953 113 16609410889143086117
14251740 79 18341624736382072696
14251751 93 18409444795621595145
14251757 17 18059025977162098966
14251757 5 18120105136802325084
14916288 52 17329714735033680357
15006816 218 18338237063620467077
15322534 239 18410020909628868326
16120349 306 18337099077945037024
16719943 64 18336827593320485018
17093844 170 18411979148907614250
17859628 97 18409450302154965905
20775438 99 16257538104570400991
23559900 14 18271239546970486808
3027735 51 18413111670968322651
3084891 72 18339360880531546139
338550 245 18335427811965491524
5282940 2 18264769861706440569
5309563 4 16462492603747227850
6287921 2 17623284970746165187
9543594 6 18124313809868569158

> <PUBCHEM_SHAPE_MULTIPOLES>
399.85
9.08
5.65
0.99
5.34
2.85
-0.14
-3.27
1.1
-0.39
-0.46
0.12
0.18
-0.61

> <PUBCHEM_SHAPE_SELFOVERLAP>
749.198

> <PUBCHEM_SHAPE_VOLUME>
247

> <RelativeEnergy>
16.4491

> <StereoisomerIndex>
1

> <TautomerIndex>
1

> <POSE_NUMBER>
7

> <LibDockScore>
115.7745

> <HotSpots>
10.81,8.27,-8.46,A,35,4
7.21,9.27,-3.25,A,45,11
9.01,2.67,-14.05,A,21,20

> <-In-Situ Starting Energy>
-836.36139

> <-In-Situ Final Energy>
-13.9992746

> <In-Situ Gradient>
0.0009764208991

$$$$
5281404
  SciTegic09142310043D

 24 26  0  0  0  0            999 V2000
    8.4361    0.7715    1.5961 N   0  0  0  1  0  0
    5.7060   -0.5029   -0.7395 N   0  0  0  1  0  0
    6.3679    1.7046    0.8878 C   0  0  0  1  0  0
    7.2405    0.5429    0.7898 C   0  0  0  1  0  0
    6.8939    2.4827    1.8512 C   0  0  0  1  0  0
    8.2275    1.9601    2.1683 C   0  0  0  1  0  0
    6.9086   -0.5645    0.1203 C   0  0  0  1  0  0
    5.1944    1.7847    0.0051 C   0  0  0  1  0  0
    6.4190    3.6505    2.6082 C   0  0  0  1  0  0
    9.1468    2.7243    3.0207 C   0  0  0  1  0  0
    7.2581    4.2748    3.4600 C   0  0  0  1  0  0
    8.6497    3.8128    3.6344 C   0  0  0  1  0  0
    4.9169    0.7503   -0.8172 C   0  0  0  1  0  0
    7.5389   -1.8786    0.4848 C   0  0  0  1  0  0
    5.4920   -1.2716   -1.3492 H   0  0
    4.6136    2.6812   -0.0055 H   0  0
    5.4094    3.9749    2.5174 H   0  0
   10.1692    2.4169    3.1468 H   0  0
    6.9524    5.1321    4.0307 H   0  0
    9.2834    4.3901    4.2717 H   0  0
    4.1381    0.8369   -1.5502 H   0  0
    8.3551   -2.1205   -0.1897 H   0  0
    6.7943   -2.6731    0.4696 H   0  0
    7.9652   -1.8544    1.4884 H   0  0
  1  4  1  0
  1  6  2  0
  2  7  1  0
  2 13  1  0
  3  4  1  0
  3  5  2  0
  3  8  1  0
  4  7  2  0
  5  6  1  0
  5  9  1  0
  6 10  1  0
  7 14  1  0
  8 13  2  0
  9 11  2  0
 10 12  2  0
 11 12  1  0
  2 15  1  0
  8 16  1  0
  9 17  1  0
 10 18  1  0
 11 19  1  0
 12 20  1  0
 13 21  1  0
 14 22  1  0
 14 23  1  0
 14 24  1  0
M  END
> <Name>
5281404

> <Binding Energy>
-29.7117

> <Ligand Energy>
43.7973

> <Protein Energy>
-7801.1566

> <Complex Energy>
-7787.071

> <Complex Entropy>
-31.4765

> <Protein Entropy>
-31.4717

> <Ligand Entropy>
-17.9692

> <Entropic Energy>
17.9643

> <AbsoluteEnergy>
37.4643

> <ConfNumber>
1

> <Ionization pH>
7.61_DD

> <IonizationIndex>
2

> <MOL_NUMBER>
84

> <NumberOfIonizations>
2

> <NumberOfStereoisomers>
1

> <NumberOfTautomers>
2

> <PUBCHEM_ATOM_DEF_STEREO_COUNT>
0

> <PUBCHEM_ATOM_UDEF_STEREO_COUNT>
0

> <PUBCHEM_BOND_DEF_STEREO_COUNT>
0

> <PUBCHEM_BOND_UDEF_STEREO_COUNT>
0

> <PUBCHEM_CACTVS_TAUTO_COUNT>
2

> <PUBCHEM_COMPONENT_COUNT>
1

> <PUBCHEM_COMPOUND_CID>
5281404

> <PUBCHEM_CONFORMER_DIVERSEORDER>
1

> <PUBCHEM_CONFORMER_ID>
0050967C00000001

> <PUBCHEM_CONFORMER_RMSD>
0.4

> <PUBCHEM_COORDINATE_TYPE>
2
5
10

> <PUBCHEM_EFFECTIVE_ROTOR_COUNT>
0

> <PUBCHEM_FEATURE_SELFOVERLAP>
30.632

> <PUBCHEM_HEAVY_ATOM_COUNT>
14

> <PUBCHEM_ISOTOPIC_ATOM_COUNT>
0

> <PUBCHEM_MMFF94_ENERGY>
30.2369

> <PUBCHEM_MMFF94_PARTIAL_CHARGES>
19
1 0.03
10 -0.15
11 -0.15
12 -0.15
13 0.16
14 0.14
15 0.27
16 0.15
17 0.15
18 0.15
19 0.15
2 -0.62
20 0.15
21 0.15
4 -0.15
6 -0.15
7 0.17
8 -0.15
9 -0.15

> <PUBCHEM_PHARMACOPHORE_FEATURES>
6
1 1 cation
1 1 donor
1 2 acceptor
5 1 3 4 5 6 rings
6 2 3 4 7 8 13 rings
6 5 6 9 10 11 12 rings

> <PUBCHEM_SHAPE_FINGERPRINT>
10608611 8 18409163290443184221
10967382 1 18338797939120528133
10980938 120 18412544335921785874
11132069 177 18410566310060828104
11471102 20 18410569561372066213
12032990 46 18410862031549723311
12932764 1 17531242799390635889
13140716 1 18410293575347735851
13296908 3 18408044009186290379
13380535 21 18411147943280138443
13380535 76 18336262448280176826
13897977 150 18410571811940437789
14144814 61 18411138013394897467
14325111 11 18410573998131512929
14576447 43 17841416331526410967
14790565 3 15533921336298542106
15196674 1 18410573998432043879
15219456 202 18409165515241186913
15442244 35 18195809561521498570
15536298 74 18343021095038060228
15775835 57 18272092754796476132
16945 1 18266740168988934567
17844478 74 17968386662795990581
17990270 104 18340488846528992510
18186145 218 18409450254240139893
193761 8 14735636251183261697
19591789 44 15811736781386549367
200 152 18059281115947781695
20201158 50 18410010996643888787
20645477 70 18341046342063800367
21267235 1 18411146818014979351
21501502 16 18411981347361105659
21501925 9 18337941325289689578
221490 88 18409176514753139570
2334 1 18410575123328340578
23402655 69 18341884170251076957
23463225 33 18409446960084574230
23552423 10 18334858298748212174
23559900 14 18341043000642540794
2748010 2 18409731767855653966
3312278 4 18340209686581436779
335352 9 18122624942274178237
5104073 3 18410013238922435555
528886 8 18411132545695879322
53812653 166 18200027472930904816
57096353 35 18340485693964553301
69090 78 18341044143235515479
7364860 26 18342458123652039454
8809292 202 18260836989997140859
9709674 26 18411141333278646783

> <PUBCHEM_SHAPE_MULTIPOLES>
278.15
5.8
2.02
0.6
1.19
0.01
0
0.58
0
-0.94
0
0.02
-0.01
0

> <PUBCHEM_SHAPE_SELFOVERLAP>
628.364

> <PUBCHEM_SHAPE_VOLUME>
148

> <RelativeEnergy>
0

> <StereoisomerIndex>
1

> <TautomerIndex>
2

> <POSE_NUMBER>
1

> <LibDockScore>
74.9338

> <HotSpots>
6.01,0.67,0.55,A,70,8
8.81,3.67,3.75,A,88,10
6.61,4.27,3.15,A,86,11

> <-In-Situ Starting Energy>
-2400.85322

> <-In-Situ Final Energy>
-16.341932

> <In-Situ Gradient>
0.000925122888

$$$$
5281426
  SciTegic09142310043D

 17 18  0  0  0  0            999 V2000
    7.9620    2.3605    0.6275 O   0  0  0  1  0  0
    7.8856    1.9210   -4.0794 O   0  5  0  1  0  0
    7.9455    2.3521    2.9013 O   0  0  0  1  0  0
    6.5241    0.7606   -0.4967 C   0  0  0  1  0  0
    7.4690    1.7753   -0.5720 C   0  0  0  1  0  0
    5.9767    0.2396   -1.6551 C   0  0  0  1  0  0
    7.9301    2.2089   -1.8104 C   0  0  0  1  0  0
    6.1506    0.2164    0.7958 C   0  0  0  1  0  0
    7.4507    1.6113   -2.9730 C   0  0  0  1  0  0
    6.4540    0.6558   -2.8879 C   0  0  0  1  0  0
    6.6584    0.7473    1.9144 C   0  0  0  1  0  0
    7.5852    1.8930    1.8221 C   0  0  0  1  0  0
    5.2101   -0.5149   -1.6044 H   0  0
    8.6731    2.9824   -1.8915 H   0  0
    5.4846   -0.6115    0.8318 H   0  0
    6.0758    0.2301   -3.8039 H   0  0
    6.3898    0.3356    2.8679 H   0  0
  1  5  1  0
  1 12  1  0
  2  9  1  0
  3 12  2  0
  4  5  2  0
  4  6  1  0
  4  8  1  0
  5  7  1  0
  6 10  2  0
  7  9  2  0
  8 11  2  0
  9 10  1  0
 11 12  1  0
  6 13  1  0
  7 14  1  0
  8 15  1  0
 10 16  1  0
 11 17  1  0
M  CHG  1   2  -1
M  END
> <Name>
5281426

> <Binding Energy>
-93.2614

> <Ligand Energy>
-28.2581

> <Protein Energy>
-7801.1566

> <Complex Energy>
-7922.6762

> <Complex Entropy>
-31.476

> <Protein Entropy>
-31.4717

> <Ligand Entropy>
-17.5669

> <Entropic Energy>
17.5626

> <AbsoluteEnergy>
15.7117

> <ConfNumber>
1

> <Ionization pH>
7.5

> <IonizationIndex>
1

> <MOL_NUMBER>
85

> <NumberOfIonizations>
1

> <NumberOfStereoisomers>
1

> <NumberOfTautomers>
1

> <PUBCHEM_ATOM_DEF_STEREO_COUNT>
0

> <PUBCHEM_ATOM_UDEF_STEREO_COUNT>
0

> <PUBCHEM_BOND_DEF_STEREO_COUNT>
0

> <PUBCHEM_BOND_UDEF_STEREO_COUNT>
0

> <PUBCHEM_CACTVS_TAUTO_COUNT>
3

> <PUBCHEM_COMPONENT_COUNT>
1

> <PUBCHEM_COMPOUND_CID>
5281426

> <PUBCHEM_CONFORMER_DIVERSEORDER>
1

> <PUBCHEM_CONFORMER_ID>
50969200000001

> <PUBCHEM_CONFORMER_RMSD>
0.4

> <PUBCHEM_COORDINATE_TYPE>
2
5
10

> <PUBCHEM_EFFECTIVE_ROTOR_COUNT>
0

> <PUBCHEM_FEATURE_SELFOVERLAP>
20.325

> <PUBCHEM_HEAVY_ATOM_COUNT>
12

> <PUBCHEM_ISOTOPIC_ATOM_COUNT>
0

> <PUBCHEM_MMFF94_ENERGY>
36.5695

> <PUBCHEM_MMFF94_PARTIAL_CHARGES>
18
1 -0.23
10 -0.15
11 -0.14
12 0.71
13 0.15
14 0.15
15 0.15
16 0.15
17 0.15
18 0.45
2 -0.53
3 -0.57
4 0.03
5 0.08
6 -0.15
7 -0.15
8 -0.18
9 0.08

> <PUBCHEM_PHARMACOPHORE_FEATURES>
4
1 2 donor
1 3 acceptor
6 1 4 5 8 11 12 rings
6 4 5 6 7 9 10 rings

> <PUBCHEM_SHAPE_FINGERPRINT>
10608611 8 18410853265400230824
12491281 212 18341906159797765225
12932764 1 17489021668711251274
13380535 21 18410587179296486574
13380535 76 18410570686616925094
13897977 150 18411133645292019933
14325111 11 18410573993741463680
14897335 6 18411412908307637255
15219456 202 18411987952836437378
15775835 57 18410859862490882121
16945 1 18266741277117059078
17844478 74 18114476625273737011
20871998 184 18128542746094871599
21040471 1 18410574015295525382
21501502 16 18410568491893892102
23235685 24 18410568487593500652
23402655 69 18270387314290106925
23463225 33 18334571326746099714
23552423 10 18333450962582791542
23559900 14 18272656775378701532
2748010 2 18410860962007940718
528886 8 18411132545711638594
53812653 166 18343015623044256952
63268167 104 18412830157273499041
6333449 129 18340766039285782223
7364860 26 18270117894996750614

> <PUBCHEM_SHAPE_MULTIPOLES>
229.35
4.8
1.75
0.59
0.06
0.32
0
-1.55
0
0.06
0
-0.01
0.03
0

> <PUBCHEM_SHAPE_SELFOVERLAP>
502.286

> <PUBCHEM_SHAPE_VOLUME>
124

> <RelativeEnergy>
0

> <StereoisomerIndex>
1

> <TautomerIndex>
1

> <POSE_NUMBER>
1

> <LibDockScore>
69.7854

> <HotSpots>
7.61,2.87,-1.05,A,58,7
7.21,1.27,-2.85,A,46,10
7.01,-0.53,1.54,A,78,11

> <-In-Situ Starting Energy>
-140.638485

> <-In-Situ Final Energy>
61.1483552

> <In-Situ Gradient>
0.0009735147253

$$$$
5281435
  SciTegic09142310043D

 53 54  0  0  0  0            999 V2000
   14.2520    2.2654  -13.4776 O   0  0  0  1  0  0
   13.2979    4.3067   -9.3845 O   0  0  0  1  0  0
   16.2917    3.2239  -13.5951 O   0  0  0  1  0  0
   11.0880    5.4772  -13.7997 O   0  0  0  1  0  0
   12.7858    3.1752   -7.4981 O   0  0  0  1  0  0
   11.1502    4.5853   -5.8915 O   0  0  0  1  0  0
   12.4862    5.3576   -3.6205 O   0  0  0  1  0  0
   13.3013    3.5197  -11.6912 C   0  0  2  1  0  0
   12.6598    3.3926  -10.2677 C   0  0  2  1  0  0
   13.1424    2.2627  -12.5889 C   0  0  1  1  0  0
   11.1507    3.7596  -10.1990 C   0  0  0  1  0  0
   14.8049    3.6559  -11.7725 C   0  0  0  1  0  0
   11.9110    2.1085  -13.4454 C   0  0  0  1  0  0
   10.2052    2.9634  -11.0456 C   0  0  0  1  0  0
   15.2197    3.0367  -13.0377 C   0  0  0  1  0  0
   11.0495    3.0109  -13.9523 C   0  0  0  1  0  0
    9.6182    2.5634  -14.2102 C   0  0  0  1  0  0
    8.6681    2.9228  -13.0470 C   0  0  0  1  0  0
    9.4918    3.6002  -11.9923 C   0  0  0  1  0  0
   15.7577    3.9352  -10.8611 C   0  0  0  1  0  0
   10.2674    1.4711  -10.8186 C   0  0  0  1  0  0
   11.4471    4.3367  -14.5762 C   0  0  0  1  0  0
   13.0145    4.2209   -8.0946 C   0  0  0  1  0  0
   12.8447    5.4920   -7.3773 C   0  0  0  1  0  0
   12.2264    5.4989   -6.0019 C   0  0  2  1  0  0
   13.1775    5.1584   -4.8396 C   0  0  0  1  0  0
   13.0864    6.6297   -8.0527 C   0  0  0  1  0  0
   11.0766    6.2670  -14.3601 H   0  0
   11.4678    3.7597   -6.2692 H   0  0
   11.5907    5.0510   -3.7414 H   0  0
   12.8734    4.3911  -12.1866 H   0  0
   12.8288    2.3829   -9.8872 H   0  0
   13.2374    1.3777  -11.9569 H   0  0
   10.7840    3.6922   -9.1761 H   0  0
   11.0715    4.8153  -10.4629 H   0  0
   11.6140    1.0747  -13.4560 H   0  0
    9.6025    1.4826  -14.3266 H   0  0
    9.2400    2.9451  -15.1493 H   0  0
    7.8547    3.5775  -13.3626 H   0  0
    8.2045    2.0200  -12.6499 H   0  0
    9.4396    4.6745  -12.0048 H   0  0
   15.5454    4.2605   -9.8626 H   0  0
   16.8019    3.8449  -11.1064 H   0  0
    9.8715    1.2222   -9.8381 H   0  0
   11.2879    1.0994  -10.8472 H   0  0
    9.7002    0.9188  -11.5661 H   0  0
   10.9976    4.3889  -15.5762 H   0  0
   12.5294    4.3439  -14.7241 H   0  0
   11.7921    6.4806   -5.8575 H   0  0
   14.0493    5.8113   -4.8361 H   0  0
   13.5595    4.1342   -4.8846 H   0  0
   13.4478    6.6368   -9.0651 H   0  0
   12.9298    7.5914   -7.6111 H   0  0
  1 10  1  0
  1 15  1  0
  2  9  1  0
  2 23  1  0
  3 15  2  0
  4 22  1  0
  5 23  2  0
  6 25  1  0
  7 26  1  0
  8  9  1  0
  8 10  1  0
  8 12  1  0
  9 11  1  0
 10 13  1  0
 11 14  1  0
 12 15  1  0
 12 20  2  0
 13 16  2  0
 14 19  2  0
 14 21  1  0
 16 17  1  0
 16 22  1  0
 17 18  1  0
 18 19  1  0
 23 24  1  0
 24 25  1  0
 24 27  2  0
 25 26  1  0
  4 28  1  0
  6 29  1  0
  7 30  1  0
  8 31  1  0
  9 32  1  0
 10 33  1  0
 11 34  1  0
 11 35  1  0
 13 36  1  0
 17 37  1  0
 17 38  1  0
 18 39  1  0
 18 40  1  0
 19 41  1  0
 20 42  1  0
 20 43  1  0
 21 44  1  0
 21 45  1  0
 21 46  1  0
 22 47  1  0
 22 48  1  0
 25 49  1  0
 26 50  1  0
 26 51  1  0
 27 52  1  0
 27 53  1  0
M  END
> <Name>
5281435

> <Binding Energy>
-32.3706

> <Ligand Energy>
87.5794

> <Protein Energy>
-7801.1566

> <Complex Energy>
-7745.9478

> <Complex Entropy>
-31.4849

> <Protein Entropy>
-31.4717

> <Ligand Entropy>
-19.9887

> <Entropic Energy>
19.9755

> <AbsoluteEnergy>
78.1318

> <ConfNumber>
150

> <IonizationIndex>
1

> <MOL_NUMBER>
87

> <NumberOfIonizations>
1

> <NumberOfStereoisomers>
1

> <NumberOfTautomers>
1

> <PUBCHEM_ATOM_DEF_STEREO_COUNT>
4

> <PUBCHEM_ATOM_UDEF_STEREO_COUNT>
0

> <PUBCHEM_BOND_DEF_STEREO_COUNT>
2

> <PUBCHEM_BOND_UDEF_STEREO_COUNT>
0

> <PUBCHEM_CACTVS_TAUTO_COUNT>
1

> <PUBCHEM_COMPONENT_COUNT>
1

> <PUBCHEM_COMPOUND_CID>
5281435

> <PUBCHEM_CONFORMER_DIVERSEORDER>
1
170
188
72
142
112
135
62
147
169
154
194
240
247
155
192
211
31
65
44
178
20
90
127
19
45
97
94
233
108
244
201
105
237
156
165
48
204
193
80
206
172
121
21
57
246
140
236
141
113
207
114
159
196
202
148
213
190
49
40
84
106
87
128
153
168
184
173
111
27
76
30
221
101
92
36
99
239
115
161
243
174
180
177
179
81
149
163
185
77
217
12
6
109
139
249
103
229
191
160
82
29
104
216
43
151
5
41
176
7
91
162
124
63
189
157
138
64
85
61
158
152
123
227
32
73
228
125
197
11
100
225
226
130
74
133
171
18
220
222
187
224
232
122
250
231
96
182
4
223
67
200
146
66
132
164
28
15
78
234
137
145
107
144
210
219
8
58
120
205
209
2
167
199
183
195
203
70
118
86
134
3
83
17
69
238
252
9
102
214
150
23
218
136
38
52
235
68
37
95
88
71
51
93
42
22
212
251
10
33
26
241
16
131
181
98
166
215
245
242
208
54
89
55
60
35
34
13
53
126
14
198
119
116
39
186
175
143
46
248
110
129
50
25
117
24
56
75
47
79
59
230

> <PUBCHEM_CONFORMER_ID>
0050969B00000001

> <PUBCHEM_CONFORMER_RMSD>
0.8

> <PUBCHEM_COORDINATE_TYPE>
2
5
10

> <PUBCHEM_EFFECTIVE_ROTOR_COUNT>
7

> <PUBCHEM_FEATURE_SELFOVERLAP>
50.757

> <PUBCHEM_HEAVY_ATOM_COUNT>
27

> <PUBCHEM_ISOTOPIC_ATOM_COUNT>
0

> <PUBCHEM_MMFF94_ENERGY>
75.7697

> <PUBCHEM_MMFF94_PARTIAL_CHARGES>
36
1 -0.43
10 0.42
11 0.14
12 -0.12
13 -0.29
14 -0.28
15 0.71
16 -0.28
17 0.14
18 0.14
19 -0.29
2 -0.43
20 -0.3
21 0.14
22 0.42
23 0.71
24 -0.12
25 0.42
26 0.28
27 -0.3
3 -0.57
33 0.15
38 0.15
39 0.15
4 -0.68
40 0.15
47 0.4
5 -0.57
50 0.15
51 0.15
52 0.4
53 0.4
6 -0.68
7 -0.68
8 0.14
9 0.28

> <PUBCHEM_PHARMACOPHORE_FEATURES>
10
1 27 hydrophobe
1 3 acceptor
1 4 acceptor
1 4 donor
1 5 acceptor
1 6 acceptor
1 6 donor
1 7 acceptor
1 7 donor
5 1 8 10 12 15 rings

> <PUBCHEM_SHAPE_FINGERPRINT>
10319926 262 18268129995738930346
10366900 7 18201434783606252410
10369192 42 17055815303941064504
10411042 1 18193844962177246611
10670039 82 18336833009648642532
10675989 125 17036118214180003821
10906281 52 18338238142522622993
1100329 8 18335985363261033865
11056379 131 18338526235553456364
11578080 2 17242987271805379853
12011746 2 18411973672592411255
12107183 9 17684926909047698890
12236239 1 17530682126208140786
12553582 1 18409740573029169265
12596602 18 17531247292354189362
12788726 201 18334573538464418610
13140716 1 18265619956172699763
13583140 156 16732991928760457952
13782708 43 17846786174707590222
138480 1 15743316723858568393
14251757 5 18187651370233573274
14790565 3 17618793457041623953
15042514 8 18409453565712588251
15250474 111 18115863015190461658
15927050 60 17765430947051995509
16087824 20 18409453549619902561
16752209 62 18336257951401828450
18222031 100 18341884233899989569
20775438 99 16832583717011231471
21033648 29 17704065209671195762
21236236 1 18342178821427718177
21285901 2 18131634460980298287
2297311 6 18338808891667285382
23402539 116 18341889675897873271
23557571 272 18272093760256868268
23559900 14 18338231690790713168
283562 15 18340204081870824089
3004659 81 18113614637742342103
335352 9 18409167740788672423
484989 97 18116989104556088047
57527452 28 16487250011386647335
59755656 215 18338231553468083575
7226269 152 18334012800392942739
9709674 26 18270125600136476830

> <PUBCHEM_SHAPE_MULTIPOLES>
514.56
11.42
4.12
1.24
14.16
4.15
0.04
-5.2
-2.59
-3.96
0.27
0.34
-0.49
0.14

> <PUBCHEM_SHAPE_SELFOVERLAP>
1062.002

> <PUBCHEM_SHAPE_VOLUME>
292.5

> <RelativeEnergy>
19.8722

> <StereoisomerIndex>
1

> <TautomerIndex>
1

> <POSE_NUMBER>
1

> <LibDockScore>
100.8103

> <HotSpots>
13.41,6.07,-3.65,P,65,7
9.01,2.67,-14.05,A,21,18
9.21,3.67,-12.86,A,26,19

> <-In-Situ Starting Energy>
-525.311564

> <-In-Situ Final Energy>
-54.7069805

> <In-Situ Gradient>
0.0009384974517

$$$$
5281544
  SciTegic09142310043D

 70 72  0  0  0  0            999 V2000
   22.3477    7.3156  -21.5992 O   0  0  0  1  0  0
   20.3432    6.2419  -22.0889 O   0  0  0  1  0  0
   19.5766    8.6252  -24.2925 O   0  0  0  1  0  0
   20.5802   10.5101  -22.1568 O   0  0  0  1  0  0
   22.9113    7.5204  -24.3967 O   0  0  0  1  0  0
   20.4467    3.9688  -22.0645 O   0  0  0  1  0  0
   23.2759    8.7116  -19.4214 O   0  0  0  1  0  0
   17.5985    1.3771  -17.9612 O   0  0  0  1  0  0
   18.3280    0.3896  -21.9316 O   0  0  0  1  0  0
   16.1482    3.0876  -17.8120 O   0  0  0  1  0  0
   16.7481    1.3739  -20.6920 O   0  0  0  1  0  0
   11.8365    0.1363  -14.2800 O   0  0  0  1  0  0
   12.0210   -2.4327  -14.0913 O   0  0  0  1  0  0
   20.8785    8.6794  -23.7331 C   0  0  1  1  0  0
   20.7767    9.1074  -22.2546 C   0  0  1  1  0  0
   21.5943    7.3138  -23.8911 C   0  0  2  1  0  0
   22.0633    8.7115  -21.5237 C   0  0  1  1  0  0
   21.6474    6.5296  -22.5558 C   0  0  1  1  0  0
   22.0625    9.0924  -20.0427 C   0  0  0  1  0  0
   20.1489    5.1031  -21.2629 C   0  0  2  1  0  0
   18.1296    3.8046  -20.3118 C   0  0  1  1  0  0
   18.7357    5.1431  -20.7044 C   0  0  0  1  0  0
   18.6349    2.6664  -21.1562 C   0  0  0  1  0  0
   18.2909    3.5295  -18.8307 C   0  0  0  1  0  0
   19.7163    2.8252  -21.9404 C   0  0  0  1  0  0
   17.9964    6.2707  -20.7954 C   0  0  0  1  0  0
   17.2305    2.6343  -18.1642 C   0  0  0  1  0  0
   17.8415    1.4075  -21.2407 C   0  0  0  1  0  0
   16.6328    6.5318  -20.2138 C   0  0  0  1  0  0
   16.5925    0.4624  -17.5134 C   0  0  0  1  0  0
   16.5081    0.4680  -15.9797 C   0  0  0  1  0  0
   17.5724   -0.8236  -21.9869 C   0  0  0  1  0  0
   15.3278   -0.3223  -15.4677 C   0  0  0  1  0  0
   14.1343    0.3222  -15.1361 C   0  0  0  1  0  0
   15.4161   -1.7056  -15.3132 C   0  0  0  1  0  0
   13.0531   -0.4142  -14.6542 C   0  0  0  1  0  0
   14.3290   -2.4378  -14.8490 C   0  0  0  1  0  0
   13.1518   -1.7833  -14.5303 C   0  0  0  1  0  0
   19.1374    9.4636  -24.2102 H   0  0
   19.7276   10.7604  -22.4995 H   0  0
   23.5241    7.5880  -23.6657 H   0  0
   23.5669    7.8814  -19.7944 H   0  0
   11.8991    1.0794  -14.2063 H   0  0
   11.3797   -1.7252  -14.0248 H   0  0
   21.4670    9.4172  -24.2878 H   0  0
   19.9524    8.5913  -21.7547 H   0  0
   21.0648    6.7161  -24.6344 H   0  0
   22.8737    9.2610  -21.9917 H   0  0
   22.1889    5.5949  -22.7118 H   0  0
   21.9494   10.1716  -19.9277 H   0  0
   21.2251    8.6233  -19.5208 H   0  0
   20.8504    5.1349  -20.4279 H   0  0
   17.0632    3.8795  -20.4378 H   0  0
   18.1004    4.5088  -18.4032 H   0  0
   19.2923    3.1706  -18.5985 H   0  0
   20.0657    2.0141  -22.5536 H   0  0
   18.4084    7.1594  -21.2296 H   0  0
   16.3486    5.7644  -19.4946 H   0  0
   15.8823    6.5747  -21.0028 H   0  0
   16.6219    7.4866  -19.6886 H   0  0
   15.6241    0.7128  -17.9475 H   0  0
   16.8443   -0.5289  -17.8899 H   0  0
   17.4293    0.0678  -15.5565 H   0  0
   16.4284    1.4948  -15.6222 H   0  0
   17.1755   -0.9477  -22.9942 H   0  0
   16.7486   -0.8499  -21.2703 H   0  0
   18.2363   -1.6589  -21.7662 H   0  0
   14.0757    1.3930  -15.2689 H   0  0
   16.3307   -2.2249  -15.5615 H   0  0
   14.3879   -3.5117  -14.7505 H   0  0
  1 17  1  0
  1 18  1  0
  2 18  1  0
  2 20  1  0
  3 14  1  0
  4 15  1  0
  5 16  1  0
  6 20  1  0
  6 25  1  0
  7 19  1  0
  8 27  1  0
  8 30  1  0
  9 28  1  0
  9 32  1  0
 10 27  2  0
 11 28  2  0
 12 36  1  0
 13 38  1  0
 14 15  1  0
 14 16  1  0
 15 17  1  0
 16 18  1  0
 17 19  1  0
 20 22  1  0
 21 22  1  0
 21 23  1  0
 21 24  1  0
 22 26  2  0
 23 25  2  0
 23 28  1  0
 24 27  1  0
 26 29  1  0
 30 31  1  0
 31 33  1  0
 33 34  2  0
 33 35  1  0
 34 36  1  0
 35 37  2  0
 36 38  2  0
 37 38  1  0
  3 39  1  0
  4 40  1  0
  5 41  1  0
  7 42  1  0
 12 43  1  0
 13 44  1  0
 14 45  1  0
 15 46  1  0
 16 47  1  0
 17 48  1  0
 18 49  1  0
 19 50  1  0
 19 51  1  0
 20 52  1  0
 21 53  1  0
 24 54  1  0
 24 55  1  0
 25 56  1  0
 26 57  1  0
 29 58  1  0
 29 59  1  0
 29 60  1  0
 30 61  1  0
 30 62  1  0
 31 63  1  0
 31 64  1  0
 32 65  1  0
 32 66  1  0
 32 67  1  0
 34 68  1  0
 35 69  1  0
 37 70  1  0
M  END
> <Name>
5281544

> <Binding Energy>
-84.9236

> <Ligand Energy>
46.057

> <Protein Energy>
-7801.1566

> <Complex Energy>
-7840.0232

> <Complex Entropy>
-31.4997

> <Protein Entropy>
-31.4717

> <Ligand Entropy>
-21.1453

> <Entropic Energy>
21.1173

> <AbsoluteEnergy>
65.2983

> <ConfNumber>
110

> <Ionization pH>
7.5

> <IonizationIndex>
1

> <MOL_NUMBER>
88

> <NumberOfIonizations>
1

> <NumberOfStereoisomers>
1

> <NumberOfTautomers>
1

> <PUBCHEM_ATOM_DEF_STEREO_COUNT>
7

> <PUBCHEM_ATOM_UDEF_STEREO_COUNT>
0

> <PUBCHEM_BOND_DEF_STEREO_COUNT>
1

> <PUBCHEM_BOND_UDEF_STEREO_COUNT>
0

> <PUBCHEM_CACTVS_TAUTO_COUNT>
18

> <PUBCHEM_COMPONENT_COUNT>
1

> <PUBCHEM_COMPOUND_CID>
5281544

> <PUBCHEM_CONFORMER_DIVERSEORDER>
1
57
62
7
47
4
123
34
95
118
26
99
86
98
130
115
30
109
42
75
65
20
96
116
29
28
37
119
12
60
124
9
52
104
102
39
87
43
35
113
105
40
77
81
107
121
106
94
69
16
48
101
27
21
33
120
68
14
73
46
53
131
22
54
129
122
72
15
74
66
91
70
19
44
63
97
64
6
88
50
5
76
31
126
103
49
82
24
11
2
89
13
110
17
92
117
51
80
8
127
36
128
93
79
111
58
85
25
90
23
18
41
84
38
67
78
61
83
3
10
32
45
55
59
71
100
56
112
125
114
108

> <PUBCHEM_CONFORMER_ID>
50970800000001

> <PUBCHEM_CONFORMER_RMSD>
1.2

> <PUBCHEM_COORDINATE_TYPE>
2
5
10

> <PUBCHEM_EFFECTIVE_ROTOR_COUNT>
12.8

> <PUBCHEM_FEATURE_SELFOVERLAP>
96.54

> <PUBCHEM_HEAVY_ATOM_COUNT>
38

> <PUBCHEM_ISOTOPIC_ATOM_COUNT>
0

> <PUBCHEM_MMFF94_ENERGY>
89.864

> <PUBCHEM_MMFF94_PARTIAL_CHARGES>
49
1 -0.56
10 -0.57
11 -0.57
12 -0.53
13 -0.53
14 0.28
15 0.28
16 0.28
17 0.28
18 0.56
19 0.28
2 -0.56
20 0.7
21 0.28
22 -0.28
23 -0.12
24 0.06
25 -0.07
26 -0.29
27 0.66
28 0.71
29 0.14
3 -0.68
30 0.28
31 0.14
32 0.28
33 -0.14
34 -0.15
35 -0.15
36 0.08
37 -0.15
38 0.08
4 -0.68
48 0.4
49 0.4
5 -0.68
50 0.4
53 0.15
54 0.15
55 0.4
6 -0.36
66 0.15
67 0.15
68 0.15
69 0.45
7 -0.68
70 0.45
8 -0.43
9 -0.43

> <PUBCHEM_PHARMACOPHORE_FEATURES>
19
1 1 acceptor
1 10 acceptor
1 11 acceptor
1 12 donor
1 13 donor
1 2 acceptor
1 29 hydrophobe
1 3 acceptor
1 3 donor
1 4 acceptor
1 4 donor
1 5 acceptor
1 5 donor
1 6 acceptor
1 7 acceptor
1 7 donor
6 1 14 15 16 17 18 rings
6 33 34 35 36 37 38 rings
6 6 20 21 22 23 25 rings

> <PUBCHEM_SHAPE_FINGERPRINT>
10622 236 17985828370561805759
10928967 22 18259981583025543906
11136131 41 17768527544688425952
12373685 5 16153697705692479784
12422481 6 16845304838319890749
12633257 1 18057346027143913577
13690498 29 17967817128188434084
13782708 43 18259983798959259805
13947947 140 18268717272055663719
14068700 675 18341330076050682307
14705955 166 17203336559093987650
15001296 14 18190173683966671810
15351334 14 12540692574939674873
208703 8 18263376922187455579
23569914 152 15504588877776560354
2838139 119 9727366701071230758
397830 11 17489867146551722386
484985 159 18343581824841646903
5080951 261 18262238824826686069
513202 73 18040439893373850079

> <PUBCHEM_SHAPE_MULTIPOLES>
705.72
16.96
4.48
2.81
16.68
1.49
1.1
-17.18
1.06
-3.48
-0.42
0.29
-0.27
-1.84

> <PUBCHEM_SHAPE_SELFOVERLAP>
1479.25

> <PUBCHEM_SHAPE_VOLUME>
393.1

> <RelativeEnergy>
18.2709

> <StereoisomerIndex>
1

> <TautomerIndex>
1

> <POSE_NUMBER>
1

> <LibDockScore>
110.3137

> <HotSpots>
11.41,-3.13,-14.46,P,20,13
21.21,11.47,-19.86,A,3,19
17.01,6.47,-19.66,A,4,26

> <-In-Situ Starting Energy>
-438.240223

> <-In-Situ Final Energy>
-7.97730558

> <In-Situ Gradient>
0.000988693081

$$$$
5281611
  SciTegic09142310043D

 27 29  0  0  0  0            999 V2000
   15.4417   -4.8254  -14.9479 O   0  0  0  1  0  0
   12.3063   -3.3751  -13.7906 O   0  5  0  1  0  0
   12.8948   -5.8394  -12.3063 O   0  0  0  1  0  0
   15.2669   -9.2211  -16.8089 O   0  5  0  1  0  0
   15.9991    1.2483  -16.4764 O   0  5  0  1  0  0
   13.8499   -6.4988  -14.2775 C   0  0  0  1  0  0
   14.6021   -3.7687  -14.6060 C   0  0  0  1  0  0
   14.9836   -6.1599  -15.0027 C   0  0  0  1  0  0
   14.9885   -2.3999  -15.0311 C   0  0  0  1  0  0
   13.3051   -4.0997  -13.9091 C   0  0  0  1  0  0
   13.2820   -5.5197  -13.3893 C   0  0  0  1  0  0
   13.2063   -7.7068  -14.4516 C   0  0  0  1  0  0
   15.5114   -7.1156  -15.8800 C   0  0  0  1  0  0
   14.8619   -8.3418  -16.0516 C   0  0  0  1  0  0
   14.0575   -1.3611  -15.0782 C   0  0  0  1  0  0
   16.2826   -2.1451  -15.4829 C   0  0  0  1  0  0
   13.7159   -8.6194  -15.3429 C   0  0  0  1  0  0
   14.4102   -0.1078  -15.5724 C   0  0  0  1  0  0
   16.6276   -0.8828  -15.9672 C   0  0  0  1  0  0
   15.6945    0.1426  -16.0248 C   0  0  0  1  0  0
   12.3080   -7.9329  -13.9049 H   0  0
   16.3956   -6.9124  -16.4638 H   0  0
   13.0391   -1.5277  -14.7562 H   0  0
   17.0234   -2.9297  -15.4735 H   0  0
   13.2422   -9.5753  -15.4828 H   0  0
   13.6885    0.6892  -15.6290 H   0  0
   17.6221   -0.6713  -16.3227 H   0  0
  1  7  1  0
  1  8  1  0
  2 10  1  0
  3 11  2  0
  4 14  1  0
  5 20  1  0
  6  8  2  0
  6 11  1  0
  6 12  1  0
  7  9  1  0
  7 10  2  0
  8 13  1  0
  9 15  2  0
  9 16  1  0
 10 11  1  0
 12 17  2  0
 13 14  2  0
 14 17  1  0
 15 18  1  0
 16 19  2  0
 18 20  2  0
 19 20  1  0
 12 21  1  0
 13 22  1  0
 15 23  1  0
 16 24  1  0
 17 25  1  0
 18 26  1  0
 19 27  1  0
M  CHG  3   2  -1   4  -1   5  -1
M  END
> <Name>
5281611

> <Binding Energy>
-100.6948

> <Ligand Energy>
116.4761

> <Protein Energy>
-7801.1566

> <Complex Energy>
-7785.3754

> <Complex Entropy>
-31.483

> <Protein Entropy>
-31.4717

> <Ligand Entropy>
-19.1135

> <Entropic Energy>
19.1021

> <AbsoluteEnergy>
33.7566

> <ConfNumber>
1

> <Ionization pH>
7.02_DDD

> <IonizationIndex>
3

> <MOL_NUMBER>
101

> <NumberOfIonizations>
3

> <NumberOfStereoisomers>
1

> <NumberOfTautomers>
1

> <PUBCHEM_ATOM_DEF_STEREO_COUNT>
0

> <PUBCHEM_ATOM_UDEF_STEREO_COUNT>
0

> <PUBCHEM_BOND_DEF_STEREO_COUNT>
0

> <PUBCHEM_BOND_UDEF_STEREO_COUNT>
0

> <PUBCHEM_CACTVS_TAUTO_COUNT>
30

> <PUBCHEM_COMPONENT_COUNT>
1

> <PUBCHEM_COMPOUND_CID>
5281611

> <PUBCHEM_CONFORMER_DIVERSEORDER>
1

> <PUBCHEM_CONFORMER_ID>
0050974B00000001

> <PUBCHEM_CONFORMER_RMSD>
0.6

> <PUBCHEM_COORDINATE_TYPE>
2
5
10

> <PUBCHEM_EFFECTIVE_ROTOR_COUNT>
1

> <PUBCHEM_FEATURE_SELFOVERLAP>
40.625

> <PUBCHEM_HEAVY_ATOM_COUNT>
20

> <PUBCHEM_ISOTOPIC_ATOM_COUNT>
0

> <PUBCHEM_MMFF94_ENERGY>
59.0889

> <PUBCHEM_MMFF94_PARTIAL_CHARGES>
30
1 -0.16
10 0.09
11 0.47
12 -0.15
13 -0.15
14 0.08
15 -0.15
16 -0.15
17 -0.15
18 -0.15
19 -0.15
2 -0.53
20 0.08
21 0.15
22 0.15
23 0.15
24 0.15
25 0.15
26 0.15
27 0.15
28 0.45
29 0.45
3 -0.57
30 0.45
4 -0.53
5 -0.53
6 0.09
7 0.05
8 0.08
9 0.03

> <PUBCHEM_PHARMACOPHORE_FEATURES>
8
1 1 acceptor
1 2 donor
1 3 acceptor
1 4 donor
1 5 donor
6 1 6 7 8 10 11 rings
6 6 8 12 13 14 17 rings
6 9 15 16 18 19 20 rings

> <PUBCHEM_SHAPE_FINGERPRINT>
10319926 262 18197757939977781930
10411042 1 18338517568657573611
10616163 171 18410575046045829198
11046707 91 18409730668628888635
11543360 7 15719393983737394027
12032990 46 18340207487737607095
12107183 9 17469032268783622602
12236239 1 17749111050410472670
12363563 72 18338804515016379063
12553582 1 18335699455598654731
12788726 201 18188768336608115849
13140716 1 18340208583091697313
13288520 33 18410856555403039487
13740256 8 18410576227140418290
13862211 1 18411417341294655143
14115302 16 17676493881678082982
14386348 63 17917713474569796238
14790565 3 17691693281708812793
15099037 37 18343299241067086932
15196674 1 18410855503241637889
15536298 74 18341048643818169609
16752209 62 18261382317846932867
16945 1 18410573942724316421
17492 89 17979916343752629103
17804303 29 18413669119248076817
18222031 100 18270674389524499503
19141452 34 17846779637424396111
19862831 5 17603307046480734802
200 152 16732985297573422572
20028762 73 17986110932181801071
20374829 77 18410855473366719015
21033648 29 17059761239700973674
21065201 7 18269553849852685354
21267235 1 18408891758790517539
221490 88 18118691156311629555
2297311 6 18341902870148195870
23366157 5 17970629816398027684
23402539 116 18409726248854509150
23557571 272 18201158737615812212
23559900 14 18412255143021135464
26918003 58 17132396111687644426
2748010 2 18267013037468713389
3004659 81 18113334236502323703
335352 9 18410291411654954901
465052 167 18267313212612133831
474 4 17169285913038795500
5104073 3 18270125746412746195
573450 72 18188484666966121162
59755656 215 18267022760678832759
602551 16 18413387614428238682
67856867 119 18188495787027354116
7364860 26 18126849536542219048
7495541 125 18131067143693762136
77492 1 17604154718680423136
7970288 3 18338233876898359971
8863177 126 17608103267169229867
9709674 26 18120091942857775587

> <PUBCHEM_SHAPE_MULTIPOLES>
382.24
10.24
2.33
0.91
5.2
1.11
0
-6.25
0.01
-2.65
-0.01
1.02
-0.12
0.01

> <PUBCHEM_SHAPE_SELFOVERLAP>
854.713

> <PUBCHEM_SHAPE_VOLUME>
201.5

> <RelativeEnergy>
0

> <StereoisomerIndex>
1

> <TautomerIndex>
1

> <POSE_NUMBER>
1

> <LibDockScore>
53.5164

> <HotSpots>
11.41,-3.13,-14.46,P,20,2
13.01,-7.53,-14.86,A,17,12
15.61,-6.73,-13.65,A,23,13

> <-In-Situ Starting Energy>
-117.994343

> <-In-Situ Final Energy>
68.4257907

> <In-Situ Gradient>
0.0009614903745

$$$$
5282109
  SciTegic09142310043D

 31 30  0  0  0  0            999 V2000
    6.7427    9.3140   -0.6471 O   0  0  0  1  0  0
    6.0569   11.4545   -0.4745 O   0  0  0  1  0  0
    8.2319    6.8564   -4.7364 C   0  0  0  1  0  0
    9.7544    6.9129   -4.9194 C   0  0  0  1  0  0
    7.8315    8.0823   -3.9116 C   0  0  0  1  0  0
   10.6963    5.8902   -5.5115 C   0  0  0  1  0  0
   11.7050    5.1956   -4.9477 C   0  0  0  1  0  0
    7.0825    8.1752   -2.7912 C   0  0  0  1  0  0
    8.3500    9.3486   -4.5165 C   0  0  0  1  0  0
    6.8289    9.4720   -2.0578 C   0  0  0  1  0  0
   12.3309    5.4776   -3.6033 C   0  0  0  1  0  0
   12.5508    4.2541   -5.7708 C   0  0  0  1  0  0
    6.4345   10.4037    0.0415 C   0  0  0  1  0  0
    7.7386    6.8863   -5.7074 H   0  0
    7.9276    5.9364   -4.2434 H   0  0
    9.9057    7.7733   -5.5670 H   0  0
   10.1194    7.1603   -3.9323 H   0  0
   10.6087    5.8113   -6.5767 H   0  0
    6.7092    7.3020   -2.2911 H   0  0
    8.4120    9.2122   -5.5797 H   0  0
    9.3538    9.5657   -4.1504 H   0  0
    7.6951   10.1959   -4.3240 H   0  0
    5.9038    9.9091   -2.4274 H   0  0
    7.6238   10.1927   -2.2533 H   0  0
   12.0238    4.7443   -2.8660 H   0  0
   12.0601    6.4580   -3.2296 H   0  0
   13.4196    5.4623   -3.6660 H   0  0
   12.3576    4.3762   -6.8372 H   0  0
   12.3323    3.2195   -5.5065 H   0  0
   13.6156    4.4287   -5.6111 H   0  0
    6.5623   10.2539    1.1101 H   0  0
  1 10  1  0
  1 13  1  0
  2 13  2  0
  3  4  1  0
  3  5  1  0
  4  6  1  0
  5  8  2  0
  5  9  1  0
  6  7  2  0
  7 11  1  0
  7 12  1  0
  8 10  1  0
  3 14  1  0
  3 15  1  0
  4 16  1  0
  4 17  1  0
  6 18  1  0
  8 19  1  0
  9 20  1  0
  9 21  1  0
  9 22  1  0
 10 23  1  0
 10 24  1  0
 11 25  1  0
 11 26  1  0
 11 27  1  0
 12 28  1  0
 12 29  1  0
 12 30  1  0
 13 31  1  0
M  END
> <Name>
5282109

> <Binding Energy>
-20.3199

> <Ligand Energy>
51.9159

> <Protein Energy>
-7801.1566

> <Complex Energy>
-7769.5607

> <Complex Entropy>
-31.4772

> <Protein Entropy>
-31.4717

> <Ligand Entropy>
-18.3662

> <Entropic Energy>
18.3607

> <AbsoluteEnergy>
26.9928

> <ConfNumber>
65

> <IonizationIndex>
1

> <MOL_NUMBER>
160

> <NumberOfIonizations>
1

> <NumberOfStereoisomers>
1

> <NumberOfTautomers>
1

> <PUBCHEM_ATOM_DEF_STEREO_COUNT>
0

> <PUBCHEM_ATOM_UDEF_STEREO_COUNT>
0

> <PUBCHEM_BOND_DEF_STEREO_COUNT>
1

> <PUBCHEM_BOND_UDEF_STEREO_COUNT>
0

> <PUBCHEM_CACTVS_TAUTO_COUNT>
1

> <PUBCHEM_COMPONENT_COUNT>
1

> <PUBCHEM_COMPOUND_CID>
5282109

> <PUBCHEM_CONFORMER_DIVERSEORDER>
1
9
10
136
66
31
8
104
134
122
96
12
51
105
30
25
16
73
116
82
47
72
129
32
15
112
58
27
2
79
100
119
88
5
39
83
48
138
21
84
74
110
57
121
107
87
85
59
108
20
50
114
28
63
55
44
53
93
102
106
124
6
4
81
101
76
45
3
77
68
42
135
60
75
89
98
95
115
61
46
103
130
94
117
118
67
113
54
90
18
37
109
11
137
14
56
92
91
70
139
36
120
69
132
33
52
128
127
26
125
38
43
29
80
123
65
19
99
86
111
41
78
34
62
22
64
7
40
17
126
24
97
23
49
71
35
131
13
133

> <PUBCHEM_CONFORMER_ID>
0050993D00000001

> <PUBCHEM_CONFORMER_RMSD>
0.8

> <PUBCHEM_COORDINATE_TYPE>
2
5
10

> <PUBCHEM_EFFECTIVE_ROTOR_COUNT>
6

> <PUBCHEM_FEATURE_SELFOVERLAP>
20.317

> <PUBCHEM_HEAVY_ATOM_COUNT>
13

> <PUBCHEM_ISOTOPIC_ATOM_COUNT>
0

> <PUBCHEM_MMFF94_ENERGY>
13.3143

> <PUBCHEM_MMFF94_PARTIAL_CHARGES>
16
1 -0.43
10 0.42
11 0.14
12 0.14
13 0.66
18 0.15
19 0.15
2 -0.57
3 0.14
31 0.06
4 0.14
5 -0.28
6 -0.29
7 -0.28
8 -0.29
9 0.14

> <PUBCHEM_PHARMACOPHORE_FEATURES>
4
1 2 acceptor
1 9 hydrophobe
3 7 11 12 hydrophobe
4 3 4 5 6 hydrophobe

> <PUBCHEM_SHAPE_FINGERPRINT>
11769659 78 18409728443709514637
12616999 72 17968949707032951572
13705890 14 17967809470298577172
14251705 54 18339643317602524038
14251710 61 18338240366503442167
14251717 144 18410572924585043295
14350558 41 18409450305806251084
14848160 33 18261105270855397431
15375462 189 18130789000878534429
15757776 16 18259985972708492508
17834074 16 18117003380367418867
18186145 218 11963680971273159647
20291156 8 18340492149205771558
20645477 70 18335413612756229231
20671657 53 17967810509659336266
21354914 74 18259980466233306370
2255824 54 18194687200663030861
23380061 451 18130511932580733765
23500284 5 18200035014724417969
23532345 11 17841420450056623544
59391676 29 18411699880784432125
8199 65 18410294743853497518
94968 8 18334300876607598518

> <PUBCHEM_SHAPE_MULTIPOLES>
255.8
7.15
2.48
1.19
7.74
0.4
0.46
5.33
0.45
-1.56
-0.18
-0.46
-0.1
-0.26

> <PUBCHEM_SHAPE_SELFOVERLAP>
479.112

> <PUBCHEM_SHAPE_VOLUME>
159.6

> <RelativeEnergy>
8.09243

> <StereoisomerIndex>
1

> <TautomerIndex>
1

> <POSE_NUMBER>
1

> <LibDockScore>
85.2972

> <HotSpots>
5.01,10.27,-0.85,P,81,2
7.21,9.27,-3.25,A,45,10
13.41,5.07,-3.25,A,44,12

> <-In-Situ Starting Energy>
-2423.20895

> <-In-Situ Final Energy>
-33.8125331

> <In-Situ Gradient>
0.0009704299127

$$$$
5282136
  SciTegic09142310043D

 59 61  0  0  0  0            999 V2000
    5.9448    0.4060   -0.4955 S   0  0  0  1  0  0
   12.9979    0.2582   -6.6851 O   0  0  0  1  0  0
    6.2887    3.3758    2.3783 O   0  0  0  1  0  0
    4.7298    0.1753   -1.3273 O   0  0  0  1  0  0
    6.5719    1.3431   -3.8662 O   0  0  0  1  0  0
   10.9175    2.2497  -11.6669 N   0  3  0  1  0  0
   14.0245   -0.1551   -8.6884 N   0  0  0  1  0  0
    8.3185    0.0018   -3.3247 N   0  0  0  1  0  0
    9.7352    3.0878  -11.9162 C   0  0  0  1  0  0
   11.6802    2.0175  -12.9139 C   0  0  0  1  0  0
   10.0860    4.4772  -12.4766 C   0  0  0  1  0  0
   11.3679    3.0039  -14.0390 C   0  0  0  1  0  0
   11.2302    4.4145  -13.4971 C   0  0  0  1  0  0
   10.5895    0.9930  -10.9641 C   0  0  0  1  0  0
   11.7634    0.4869  -10.1691 C   0  0  0  1  0  0
   11.7463    0.5344   -8.7789 C   0  0  0  1  0  0
   12.9199    0.0313  -10.7911 C   0  0  0  1  0  0
   12.8988    0.2047   -8.0688 C   0  0  0  1  0  0
   14.0297   -0.2506  -10.0136 C   0  0  0  1  0  0
   11.8419    0.4614   -5.8956 C   0  0  0  1  0  0
   11.0294   -0.8075   -5.7391 C   0  0  0  1  0  0
    5.5305    1.8463    0.5352 C   0  0  0  1  0  0
    7.1860    1.2272   -1.5366 C   0  5  0  1  0  0
    8.7982    0.0301   -4.7055 C   0  0  0  1  0  0
    9.7631   -0.9928   -5.2893 C   0  0  0  1  0  0
    6.5674    2.3601    1.5121 C   0  0  0  1  0  0
    7.2987    0.8400   -3.0193 C   0  0  0  1  0  0
    7.8860    1.9219    1.6824 C   0  0  0  1  0  0
    8.4454    2.7431    2.6654 C   0  0  0  1  0  0
    7.4305    3.6137    3.0791 C   0  0  0  1  0  0
   11.5064    2.7894  -11.0430 H   0  0
    8.8177   -0.4634   -2.5954 H   0  0
    9.2218    3.2288  -10.9752 H   0  0
    9.0624    2.5470  -12.5845 H   0  0
   11.4896    1.0088  -13.2841 H   0  0
   12.7396    2.0793  -12.6634 H   0  0
   10.3585    5.1536  -11.6654 H   0  0
    9.1936    4.9033  -12.9362 H   0  0
   12.1396    2.9603  -14.8083 H   0  0
   10.4155    2.7269  -14.4880 H   0  0
   11.0518    5.1069  -14.3221 H   0  0
   12.1784    4.6808  -13.0290 H   0  0
   10.2337    0.2455  -11.6757 H   0  0
    9.7681    1.1853  -10.2759 H   0  0
   10.8546    0.8525   -8.2653 H   0  0
   12.9939   -0.0819  -11.8625 H   0  0
   14.9496   -0.5438  -10.4992 H   0  0
   12.2528    0.7397   -4.9304 H   0  0
   11.2450    1.3147   -6.2140 H   0  0
   11.5501   -1.6614   -6.1307 H   0  0
    4.6379    1.6084    1.1092 H   0  0
    5.2598    2.6629   -0.1343 H   0  0
    8.1683    1.2261   -1.0678 H   0  0
    7.9119    0.0839   -5.3343 H   0  0
    9.3308    0.9665   -4.6306 H   0  0
    9.3821   -1.9902   -5.3756 H   0  0
    8.3862    1.1179    1.1641 H   0  0
    9.4616    2.7116    3.0333 H   0  0
    7.5289    4.3742    3.8424 H   0  0
  1  4  2  0
  1 22  1  0
  1 23  1  0
  2 18  1  0
  2 20  1  0
  3 26  1  0
  3 30  1  0
  5 27  2  0
  6  9  1  0
  6 10  1  0
  6 14  1  0
  7 18  2  0
  7 19  1  0
  8 24  1  0
  8 27  1  0
  9 11  1  0
 10 12  1  0
 11 13  1  0
 12 13  1  0
 14 15  1  0
 15 16  2  0
 15 17  1  0
 16 18  1  0
 17 19  2  0
 20 21  1  0
 21 25  2  0
 22 26  1  0
 23 27  1  0
 24 25  1  0
 26 28  2  0
 28 29  1  0
 29 30  2  0
  6 31  1  0
  8 32  1  0
  9 33  1  0
  9 34  1  0
 10 35  1  0
 10 36  1  0
 11 37  1  0
 11 38  1  0
 12 39  1  0
 12 40  1  0
 13 41  1  0
 13 42  1  0
 14 43  1  0
 14 44  1  0
 16 45  1  0
 17 46  1  0
 19 47  1  0
 20 48  1  0
 20 49  1  0
 21 50  1  0
 22 51  1  0
 22 52  1  0
 23 53  1  0
 24 54  1  0
 24 55  1  0
 25 56  1  0
 28 57  1  0
 29 58  1  0
 30 59  1  0
M  CHG  2   6   1  23  -1
M  END
> <Name>
5282136

> <Binding Energy>
-34.0124

> <Ligand Energy>
59.1743

> <Protein Energy>
-7801.1566

> <Complex Energy>
-7775.9947

> <Complex Entropy>
-31.4847

> <Protein Entropy>
-31.4717

> <Ligand Entropy>
-20.8463

> <Entropic Energy>
20.8332

> <AbsoluteEnergy>
37.9051

> <ConfNumber>
51

> <Ionization pH>
7.83_DDP

> <IonizationIndex>
1

> <MOL_NUMBER>
161

> <NumberOfIonizations>
2

> <NumberOfStereoisomers>
1

> <NumberOfTautomers>
1

> <PUBCHEM_ATOM_DEF_STEREO_COUNT>
0

> <PUBCHEM_ATOM_UDEF_STEREO_COUNT>
1

> <PUBCHEM_BOND_DEF_STEREO_COUNT>
1

> <PUBCHEM_BOND_UDEF_STEREO_COUNT>
0

> <PUBCHEM_CACTVS_TAUTO_COUNT>
2

> <PUBCHEM_COMPONENT_COUNT>
1

> <PUBCHEM_COMPOUND_CID>
5282136

> <PUBCHEM_CONFORMER_DIVERSEORDER>
1
142
85
59
53
97
57
117
152
4
24
118
87
21
140
65
122
84
17
76
93
43
109
3
73
146
19
116
2
27
8
171
83
70
39
29
186
22
153
159
148
60
11
80
63
178
162
170
147
49
169
104
103
7
20
56
137
175
94
48
120
106
163
75
26
167
55
92
155
136
66
12
105
31
135
180
133
50
36
54
15
177
128
172
82
10
86
114
183
25
58
28
78
98
139
69
6
127
68
161
165
96
5
35
107
91
123
46
188
88
129
134
37
44
144
23
61
185
47
149
184
157
182
158
102
166
156
121
176
74
174
42
89
111
79
110
131
179
119
81
9
95
40
67
51
126
124
100
64
151
101
132
143
173
41
154
13
150
52
145
168
32
16
18
164
38
112
160
99
113
115
34
45
90
72
33
125
138
130
141
108
62
77
181
187
14
30
71

> <PUBCHEM_CONFORMER_ID>
50995800000001

> <PUBCHEM_CONFORMER_RMSD>
1.4

> <PUBCHEM_COORDINATE_TYPE>
2
5
10

> <PUBCHEM_EFFECTIVE_ROTOR_COUNT>
13.2

> <PUBCHEM_FEATURE_SELFOVERLAP>
40.597

> <PUBCHEM_HEAVY_ATOM_COUNT>
30

> <PUBCHEM_ISOTOPIC_ATOM_COUNT>
0

> <PUBCHEM_MMFF94_ENERGY>
36.0851

> <PUBCHEM_MMFF94_PARTIAL_CHARGES>
36
1 0.11
10 0.27
14 0.41
15 -0.14
16 -0.15
17 -0.15
18 0.39
19 0.16
2 -0.36
20 0.42
21 -0.29
22 0.37
23 0.25
24 0.44
25 -0.29
26 -0.04
27 0.57
28 -0.15
29 -0.15
3 -0.28
30 -0.01
4 -0.5
43 0.15
44 0.15
45 0.15
5 -0.57
50 0.15
55 0.15
56 0.37
57 0.15
58 0.15
59 0.15
6 -0.81
7 -0.62
8 -0.73
9 0.27

> <PUBCHEM_PHARMACOPHORE_FEATURES>
8
1 3 acceptor
1 4 acceptor
1 5 acceptor
1 6 cation
1 8 donor
5 3 26 28 29 30 rings
6 6 9 10 11 12 13 rings
6 7 15 16 17 18 19 rings

> <PUBCHEM_SHAPE_FINGERPRINT>
1100329 8 18338805515959822440
11513181 2 18131071571425594190
12712778 12 17835496590649736288
13111901 51 18342455988853496520
13590594 115 17040069841178658787
1361 2 18193843634868659704
14251757 5 17327469523594780692
14840074 17 17768815261043200113
15210252 30 18336539400962396774
15351339 4 18339353175333980008
16112460 7 18271257061999523017
17627616 140 18410859841121833164
17977149 70 17552368674553241294
20764821 26 18411417336360884160
3027735 51 18125449858318753009
325973 47 18411981386063407496
3298306 158 17979067516090011678
437795 70 17698742306736363750
460360 51 18261677072804688936
463206 1 18411423916779075536
70634741 139 17761785357310681340

> <PUBCHEM_SHAPE_MULTIPOLES>
582.82
9.87
7.33
1.55
1.15
0.72
-0.16
-4.17
-3.56
-3.84
1.16
0.99
-0.23
-0.07

> <PUBCHEM_SHAPE_SELFOVERLAP>
1190.56

> <PUBCHEM_SHAPE_VOLUME>
338.1

> <RelativeEnergy>
8.15447

> <StereoisomerIndex>
1

> <TautomerIndex>
1

> <POSE_NUMBER>
3

> <LibDockScore>
134.4202

> <HotSpots>
9.21,3.67,-12.86,A,26,9
7.21,1.27,-2.85,A,46,23
7.61,1.27,1.95,A,80,29

> <-In-Situ Starting Energy>
-3243.09085

> <-In-Situ Final Energy>
-21.4986433

> <In-Situ Gradient>
0.0008770288345

$$$$
5282197
  SciTegic09142310043D

 56 55  0  0  0  0            999 V2000
   14.3447    5.7022   -8.8207 O   0  0  0  1  0  0
   10.9928    5.6706  -13.9898 O   0  0  0  1  0  0
   11.5244    6.0039   -8.2268 C   0  0  0  1  0  0
   11.2406    6.1350   -6.7108 C   0  0  0  1  0  0
   12.1883    4.6830   -8.5444 C   0  0  0  1  0  0
   12.0002    2.3451   -9.6277 C   0  0  0  1  0  0
    9.3161    7.2882   -5.3292 C   0  0  0  1  0  0
    8.9070    8.5599   -4.5999 C   0  0  0  1  0  0
   10.3102    7.2414   -6.2545 C   0  0  0  1  0  0
   11.5126    3.6993   -9.1760 C   0  0  0  1  0  0
   11.6292    1.9687  -11.0695 C   0  0  0  1  0  0
    7.4165    8.8344   -4.2784 C   0  0  0  1  0  0
   13.6539    4.6483   -8.1830 C   0  0  0  1  0  0
   12.1811    2.8823  -12.1353 C   0  0  0  1  0  0
    8.5022    6.1105   -4.9078 C   0  0  0  1  0  0
    7.0027    8.5188   -2.8487 C   0  0  0  1  0  0
   13.6712    2.7321  -12.3193 C   0  0  0  1  0  0
   11.3676    3.5827  -12.9504 C   0  0  0  1  0  0
    6.6268    9.4012   -1.9035 C   0  0  0  1  0  0
   11.7799    4.4969  -14.0717 C   0  0  0  1  0  0
    6.0994    9.0243   -0.5369 C   0  0  0  1  0  0
    6.9423   10.8601   -2.0202 C   0  0  0  1  0  0
   14.1131    5.7025   -9.7436 H   0  0
   11.2308    6.3207  -14.6668 H   0  0
   12.1672    6.8311   -8.5292 H   0  0
   10.6494    6.1305   -8.8502 H   0  0
   12.2094    6.3325   -6.2518 H   0  0
   10.9510    5.1837   -6.2758 H   0  0
   11.5742    1.5947   -8.9609 H   0  0
   13.0788    2.2646   -9.5136 H   0  0
    9.3111    9.4148   -5.1389 H   0  0
    9.4402    8.5726   -3.6478 H   0  0
   10.5054    8.1049   -6.8346 H   0  0
   10.4992    3.8929   -9.4720 H   0  0
   10.5434    1.9074  -11.1596 H   0  0
   11.9915    0.9569  -11.2553 H   0  0
    6.7795    8.2654   -4.9523 H   0  0
    7.1862    9.8783   -4.4865 H   0  0
   14.1281    3.7002   -8.4434 H   0  0
   13.7730    4.7653   -7.1053 H   0  0
    7.7499    5.9811   -5.6693 H   0  0
    7.8982    6.2954   -4.0361 H   0  0
    9.1016    5.2194   -4.7303 H   0  0
    6.9342    7.4813   -2.5932 H   0  0
   13.9741    1.6903  -12.2115 H   0  0
   14.2057    3.3185  -11.5719 H   0  0
   13.9935    3.0590  -13.3064 H   0  0
   10.3099    3.5872  -12.7584 H   0  0
   12.8387    4.7402  -13.9847 H   0  0
   11.6069    4.0011  -15.0305 H   0  0
    6.0845    7.9454   -0.3941 H   0  0
    5.0830    9.3803   -0.3855 H   0  0
    6.7116    9.4669    0.2489 H   0  0
    6.1461   11.3691   -2.5495 H   0  0
    7.8607   10.9785   -2.5823 H   0  0
    7.0816   11.3157   -1.0409 H   0  0
  1 13  1  0
  2 20  1  0
  3  4  1  0
  3  5  1  0
  4  9  1  0
  5 10  2  0
  5 13  1  0
  6 10  1  0
  6 11  1  0
  7  8  1  0
  7  9  2  0
  7 15  1  0
  8 12  1  0
 11 14  1  0
 12 16  1  0
 14 17  1  0
 14 18  2  0
 16 19  2  0
 18 20  1  0
 19 21  1  0
 19 22  1  0
  1 23  1  0
  2 24  1  0
  3 25  1  0
  3 26  1  0
  4 27  1  0
  4 28  1  0
  6 29  1  0
  6 30  1  0
  8 31  1  0
  8 32  1  0
  9 33  1  0
 10 34  1  0
 11 35  1  0
 11 36  1  0
 12 37  1  0
 12 38  1  0
 13 39  1  0
 13 40  1  0
 15 41  1  0
 15 42  1  0
 15 43  1  0
 16 44  1  0
 17 45  1  0
 17 46  1  0
 17 47  1  0
 18 48  1  0
 20 49  1  0
 20 50  1  0
 21 51  1  0
 21 52  1  0
 21 53  1  0
 22 54  1  0
 22 55  1  0
 22 56  1  0
M  END
> <Name>
5282197

> <Binding Energy>
-40.3654

> <Ligand Energy>
115.5856

> <Protein Energy>
-7801.1566

> <Complex Energy>
-7725.9365

> <Complex Entropy>
-31.4817

> <Protein Entropy>
-31.4717

> <Ligand Entropy>
-19.9411

> <Entropic Energy>
19.9311

> <AbsoluteEnergy>
46.5047

> <ConfNumber>
147

> <IonizationIndex>
1

> <MOL_NUMBER>
163

> <NumberOfIonizations>
1

> <NumberOfStereoisomers>
1

> <NumberOfTautomers>
1

> <PUBCHEM_ATOM_DEF_STEREO_COUNT>
0

> <PUBCHEM_ATOM_UDEF_STEREO_COUNT>
0

> <PUBCHEM_BOND_DEF_STEREO_COUNT>
3

> <PUBCHEM_BOND_UDEF_STEREO_COUNT>
0

> <PUBCHEM_CACTVS_TAUTO_COUNT>
1

> <PUBCHEM_COMPONENT_COUNT>
1

> <PUBCHEM_COMPOUND_CID>
5282197

> <PUBCHEM_CONFORMER_DIVERSEORDER>
1
75
9
85
64
61
18
58
102
36
94
41
6
89
76
99
42
79
27
29
100
33
112
86
46
24
39
69
84
11
21
81
113
52
14
15
37
23
56
108
101
51
105
103
4
65
96
68
44
45
106
31
7
91
47
26
88
98
107
48
55
40
38
95
59
110
109
53
67
8
97
17
10
104
50
60
74
30
13
80
43
66
87
19
22
54
63
77
83
12
90
57
93
82
3
92
78
2
111
70
34
73
32
25
62
71
49
28
72
35
5
20
16

> <PUBCHEM_CONFORMER_ID>
50999500000001

> <PUBCHEM_CONFORMER_RMSD>
1.4

> <PUBCHEM_COORDINATE_TYPE>
2
5
10

> <PUBCHEM_EFFECTIVE_ROTOR_COUNT>
11

> <PUBCHEM_FEATURE_SELFOVERLAP>
50.775

> <PUBCHEM_HEAVY_ATOM_COUNT>
22

> <PUBCHEM_ISOTOPIC_ATOM_COUNT>
0

> <PUBCHEM_MMFF94_ENERGY>
22.092

> <PUBCHEM_MMFF94_PARTIAL_CHARGES>
28
1 -0.68
10 -0.29
11 0.14
12 0.14
13 0.42
14 -0.28
15 0.14
16 -0.29
17 0.14
18 -0.29
19 -0.28
2 -0.68
20 0.42
21 0.14
22 0.14
3 0.14
31 0.15
32 0.15
4 0.14
42 0.15
46 0.15
47 0.4
5 -0.28
56 0.4
6 0.14
7 -0.28
8 0.14
9 -0.29

> <PUBCHEM_PHARMACOPHORE_FEATURES>
10
1 1 acceptor
1 1 donor
1 15 hydrophobe
1 17 hydrophobe
1 2 acceptor
1 2 donor
3 19 21 22 hydrophobe
4 3 4 5 9 hydrophobe
4 6 10 11 14 hydrophobe
4 7 8 12 16 hydrophobe

> <PUBCHEM_SHAPE_FINGERPRINT>
10316853 100 18335425720079535211
11014199 57 17472982800761471206
12596602 18 17060624408063427593
13533116 47 18131072679564221777
1361 2 18413390929995726831
14251740 57 17988926626402953190
14251764 30 17346042147393211591
14347332 77 18412259515957329701
14931854 50 18263660506209009678
15003188 105 18262521382092879590
15110567 62 18335709316585174771
15183329 4 18409450246484109821
15324115 91 16153707579073019082
15664445 248 18335423474059831928
17134984 74 18336261344938214543
17492 54 18262540146989124998
19026451 147 18261951826411198514
20567600 247 18272368694098347751
20645477 70 18335982051240426925
22224240 67 18130218376684251288
23559900 14 18334574698717543593
23596394 208 18187359909510049309
238 59 18116172020964749280
3323516 105 18334866004104144632
345986 75 17917431969354358585
463206 1 18411142462796549190
5283384 97 18412823595033118759
5309563 4 18339364063350550908
59682541 52 18261100886378993109
59755656 215 18113614608337051517

> <PUBCHEM_SHAPE_MULTIPOLES>
441.01
13.41
3.71
1.46
24.14
0.82
0.22
6.02
-4.63
-3.96
0.45
-0.36
0.41
-0.47

> <PUBCHEM_SHAPE_SELFOVERLAP>
835.994

> <PUBCHEM_SHAPE_VOLUME>
272.1

> <RelativeEnergy>
10.8476

> <StereoisomerIndex>
1

> <TautomerIndex>
1

> <POSE_NUMBER>
1

> <LibDockScore>
126.5156

> <HotSpots>
7.21,9.27,-3.25,A,45,12
11.21,4.87,-14.65,A,18,18
5.81,9.67,0.14,A,68,21

> <-In-Situ Starting Energy>
-2195.66618

> <-In-Situ Final Energy>
-83.2529326

> <In-Situ Gradient>
0.0009637589525

$$$$
5284649
  SciTegic09142310043D

 29 31  0  0  0  0            999 V2000
   13.5516    4.7817  -10.8697 O   0  0  0  1  0  0
   11.2486    2.3410   -8.7178 O   0  0  0  1  0  0
    9.1869    2.5011  -13.3735 O   0  0  0  1  0  0
   10.7807    4.0503  -14.7713 O   0  0  0  1  0  0
   13.4006    4.1013   -3.2421 O   0  5  0  1  0  0
   11.5984    3.3785  -10.7518 C   0  0  0  1  0  0
   12.9555    3.9595   -8.7120 C   0  0  0  1  0  0
   12.4713    4.1720  -11.4890 C   0  0  0  1  0  0
   11.8665    3.1549   -9.3331 C   0  0  0  1  0  0
   13.1804    3.9672   -7.2550 C   0  0  0  1  0  0
   10.4948    2.7955  -11.3646 C   0  0  0  1  0  0
   13.7418    4.6976   -9.5237 C   0  0  0  1  0  0
   12.2536    4.3726  -12.8467 C   0  0  0  1  0  0
   10.2588    3.0418  -12.7063 C   0  0  0  1  0  0
   11.1166    3.8375  -13.4447 C   0  0  0  1  0  0
   13.4903    5.1546   -6.5931 C   0  0  0  1  0  0
   13.0673    2.7946   -6.5102 C   0  0  0  1  0  0
   13.6377    5.1568   -5.2114 C   0  0  0  1  0  0
   13.1853    2.8285   -5.1272 C   0  0  0  1  0  0
   13.4206    4.0233   -4.4669 C   0  0  0  1  0  0
    9.3008    2.8041  -14.2704 H   0  0
   11.2332    4.8102  -15.1236 H   0  0
    9.8208    2.1631  -10.8039 H   0  0
   14.5714    5.2641   -9.1415 H   0  0
   12.9912    4.9306  -13.4009 H   0  0
   13.6144    6.0836   -7.1306 H   0  0
   12.8570    1.8498   -6.9894 H   0  0
   13.9271    6.0166   -4.6420 H   0  0
   13.0677    1.9300   -4.5461 H   0  0
  1  8  1  0
  1 12  1  0
  2  9  2  0
  3 14  1  0
  4 15  1  0
  5 20  1  0
  6  8  2  0
  6  9  1  0
  6 11  1  0
  7  9  1  0
  7 10  1  0
  7 12  2  0
  8 13  1  0
 10 16  2  0
 10 17  1  0
 11 14  2  0
 13 15  2  0
 14 15  1  0
 16 18  1  0
 17 19  2  0
 18 20  2  0
 19 20  1  0
  3 21  1  0
  4 22  1  0
 11 23  1  0
 12 24  1  0
 13 25  1  0
 16 26  1  0
 17 27  1  0
 18 28  1  0
 19 29  1  0
M  CHG  1   5  -1
M  END
> <Name>
5284649

> <Binding Energy>
-31.7259

> <Ligand Energy>
-47.8919

> <Protein Energy>
-7801.1566

> <Complex Energy>
-7880.7744

> <Complex Entropy>
-31.4808

> <Protein Entropy>
-31.4717

> <Ligand Entropy>
-19.0826

> <Entropic Energy>
19.0735

> <AbsoluteEnergy>
35.2527

> <ConfNumber>
1

> <Ionization pH>
7.33_DPP

> <IonizationIndex>
2

> <MOL_NUMBER>
171

> <NumberOfIonizations>
3

> <NumberOfStereoisomers>
1

> <NumberOfTautomers>
2

> <PUBCHEM_ATOM_DEF_STEREO_COUNT>
0

> <PUBCHEM_ATOM_UDEF_STEREO_COUNT>
0

> <PUBCHEM_BOND_DEF_STEREO_COUNT>
0

> <PUBCHEM_BOND_UDEF_STEREO_COUNT>
0

> <PUBCHEM_CACTVS_TAUTO_COUNT>
20

> <PUBCHEM_COMPONENT_COUNT>
1

> <PUBCHEM_COMPOUND_CID>
5284649

> <PUBCHEM_CONFORMER_DIVERSEORDER>
1
2

> <PUBCHEM_CONFORMER_ID>
0050A32900000001

> <PUBCHEM_CONFORMER_RMSD>
0.6

> <PUBCHEM_COORDINATE_TYPE>
2
5
10

> <PUBCHEM_EFFECTIVE_ROTOR_COUNT>
1

> <PUBCHEM_FEATURE_SELFOVERLAP>
40.629

> <PUBCHEM_HEAVY_ATOM_COUNT>
20

> <PUBCHEM_ISOTOPIC_ATOM_COUNT>
0

> <PUBCHEM_MMFF94_ENERGY>
59.745

> <PUBCHEM_MMFF94_PARTIAL_CHARGES>
30
1 -0.16
10 0.03
11 -0.15
12 -0.07
13 -0.15
14 0.08
15 0.08
16 -0.15
17 -0.15
18 -0.15
19 -0.15
2 -0.57
20 0.08
21 0.15
22 0.15
23 0.15
24 0.15
25 0.15
26 0.15
27 0.15
28 0.45
29 0.45
3 -0.53
30 0.45
4 -0.53
5 -0.53
6 0.09
7 -0.01
8 0.08
9 0.47

> <PUBCHEM_PHARMACOPHORE_FEATURES>
8
1 1 acceptor
1 2 acceptor
1 3 donor
1 4 donor
1 5 donor
6 1 6 7 8 9 12 rings
6 10 16 17 18 19 20 rings
6 6 8 11 13 14 15 rings

> <PUBCHEM_SHAPE_FINGERPRINT>
10 15 18040989709666056944
11287383 113 17022906778264056108
11471102 20 18409448094298773284
11796584 16 16660363683787122859
12107183 9 17268369222975858099
12236239 1 17846780706949886481
13140716 1 18122905588871203640
13533116 47 17989487394613331402
13760787 5 18412825780759950500
13862211 1 18410571747874923298
14386348 63 17894915135380164857
14573314 32 17023180500835262399
15196674 1 18338797819035835468
15788980 27 18334855009135417111
15848702 151 17916873421573564903
15961568 22 15792301530381268796
17349148 13 18202003226490308347
17862501 102 17775566433634646873
1813 80 18270977759933294708
19489759 90 16226044487993270765
200 152 18343862212901558993
20028762 73 18202841045766917391
20645477 70 18335981982800336558
21033648 29 18114727304992589709
21033650 10 16342048475008625912
21267235 1 18339928121938277814
21641784 216 18114761347278288756
21682296 61 18268154154170794894
23175994 123 18113622291944165693
23184049 59 18413394236919395974
23402539 116 18060698381566309757
23557571 272 16950557770900894861
23559900 14 17095246925257301258
26918003 58 18187367648861885545
2871803 45 18186519869704557664
335352 9 18411140269144245684
345986 75 18059286540280571482
34797466 226 16298398958407530150
34934 24 18339918329322879742
3545911 37 18408604786318620646
4340502 62 16805320002975142050
465052 167 18411986861914919790
5104073 3 18339355246083327640
542803 24 17346881147947823043
602551 16 15195271071263071541
7495541 125 17168152285820888645

> <PUBCHEM_SHAPE_MULTIPOLES>
382.24
12.05
1.57
0.91
3.77
0
0.01
1.98
0.19
-1.83
-0.01
1.14
0
0.03

> <PUBCHEM_SHAPE_SELFOVERLAP>
855.676

> <PUBCHEM_SHAPE_VOLUME>
202

> <RelativeEnergy>
0

> <StereoisomerIndex>
1

> <TautomerIndex>
1

> <POSE_NUMBER>
1

> <LibDockScore>
84.8127

> <HotSpots>
14.01,6.27,-5.46,P,57,5
9.21,3.67,-12.86,A,26,11
11.21,4.87,-14.65,A,18,13

> <-In-Situ Starting Energy>
-2050.76992

> <-In-Situ Final Energy>
45.0013182

> <In-Situ Gradient>
0.0009125129905

$$$$
5315892
  SciTegic09142310043D

 20 20  0  0  0  0            999 V2000
    9.8544    8.8991   -6.3952 O   0  0  0  1  0  0
    6.8797    9.0884   -2.4752 C   0  0  0  1  0  0
    7.5898    8.3642   -3.5428 C   0  0  0  1  0  0
    6.9817   10.4640   -2.3336 C   0  0  0  1  0  0
    6.2101    8.3682   -1.4941 C   0  0  0  1  0  0
    6.6343   11.0767   -1.1369 C   0  0  0  1  0  0
    5.9061    8.9673   -0.2797 C   0  0  0  1  0  0
    8.3889    8.9078   -4.4793 C   0  0  0  1  0  0
    6.1626   10.3113   -0.0846 C   0  0  0  1  0  0
    9.0937    8.0714   -5.5129 C   0  0  0  1  0  0
   10.5360    8.3877   -6.8444 H   0  0
    7.4921    7.3018   -3.5523 H   0  0
    7.3690   11.0468   -3.1399 H   0  0
    6.0407    7.3071   -1.6102 H   0  0
    6.7879   12.1364   -0.9989 H   0  0
    5.5267    8.3816    0.5394 H   0  0
    8.5738    9.9569   -4.5297 H   0  0
    6.0118   10.7423    0.8930 H   0  0
    8.3501    7.5133   -6.0802 H   0  0
    9.7058    7.3208   -5.0022 H   0  0
  1 10  1  0
  2  3  1  0
  2  4  2  0
  2  5  1  0
  3  8  2  0
  4  6  1  0
  5  7  2  0
  6  9  2  0
  7  9  1  0
  8 10  1  0
  1 11  1  0
  3 12  1  0
  4 13  1  0
  5 14  1  0
  6 15  1  0
  7 16  1  0
  8 17  1  0
  9 18  1  0
 10 19  1  0
 10 20  1  0
M  END
> <Name>
5315892

> <Binding Energy>
-13.693

> <Ligand Energy>
20.3328

> <Protein Energy>
-7801.1566

> <Complex Energy>
-7794.5169

> <Complex Entropy>
-31.4757

> <Protein Entropy>
-31.4717

> <Ligand Entropy>
-17.2922

> <Entropic Energy>
17.2882

> <AbsoluteEnergy>
27.8168

> <ConfNumber>
2

> <IonizationIndex>
1

> <MOL_NUMBER>
177

> <NumberOfIonizations>
1

> <NumberOfStereoisomers>
1

> <NumberOfTautomers>
1

> <PUBCHEM_ATOM_DEF_STEREO_COUNT>
0

> <PUBCHEM_ATOM_UDEF_STEREO_COUNT>
0

> <PUBCHEM_BOND_DEF_STEREO_COUNT>
1

> <PUBCHEM_BOND_UDEF_STEREO_COUNT>
0

> <PUBCHEM_CACTVS_TAUTO_COUNT>
1

> <PUBCHEM_COMPONENT_COUNT>
1

> <PUBCHEM_COMPOUND_CID>
5315892

> <PUBCHEM_CONFORMER_DIVERSEORDER>
1
3
2

> <PUBCHEM_CONFORMER_ID>
00511D3400000001

> <PUBCHEM_CONFORMER_RMSD>
0.4

> <PUBCHEM_COORDINATE_TYPE>
2
5
10

> <PUBCHEM_EFFECTIVE_ROTOR_COUNT>
2

> <PUBCHEM_FEATURE_SELFOVERLAP>
15.223

> <PUBCHEM_HEAVY_ATOM_COUNT>
10

> <PUBCHEM_ISOTOPIC_ATOM_COUNT>
0

> <PUBCHEM_MMFF94_ENERGY>
22.5167

> <PUBCHEM_MMFF94_PARTIAL_CHARGES>
18
1 -0.68
10 0.42
11 0.15
12 0.15
13 0.15
14 0.15
15 0.15
16 0.15
17 0.15
2 0.03
20 0.4
3 -0.18
4 -0.15
5 -0.15
6 -0.15
7 -0.15
8 -0.29
9 -0.15

> <PUBCHEM_PHARMACOPHORE_FEATURES>
3
1 1 acceptor
1 1 donor
6 2 4 5 6 7 9 rings

> <PUBCHEM_SHAPE_FINGERPRINT>
10857977 72 18341038696837007291
11062470 55 16370722625653347831
12932764 1 17560790039967997162
13024252 1 15864070962357343497
14144814 61 18335698325964058162
14325111 11 18410572855891634898
15669948 3 18340477950123161502
15775835 57 18334859372542744912
20645464 45 17989491805449415647
20871998 184 18201159952965210143
23402539 116 18272358777187705455
23552423 10 18116710905620487485
369184 2 16805318873229879107
6333449 129 18343579638196825783
75552 356 18409448102603936215

> <PUBCHEM_SHAPE_MULTIPOLES>
199.93
6.16
1.29
0.65
5.81
0.07
0.01
0.6
-0.26
-0.82
-0.02
0.1
0.01
-0.16

> <PUBCHEM_SHAPE_SELFOVERLAP>
406.664

> <PUBCHEM_SHAPE_VOLUME>
116.6

> <RelativeEnergy>
8.21081

> <StereoisomerIndex>
1

> <TautomerIndex>
1

> <POSE_NUMBER>
1

> <LibDockScore>
81.6984

> <HotSpots>
10.01,10.27,-5.66,P,55,1
8.61,9.67,-3.85,A,41,8
5.81,9.67,0.14,A,68,9

> <-In-Situ Starting Energy>
-316.933469

> <-In-Situ Final Energy>
6.06494035

> <In-Situ Gradient>
0.0009312503845

$$$$
5317750
  SciTegic09142310043D

 33 35  0  0  0  0            999 V2000
   13.4922    4.6392  -11.3049 O   0  0  0  1  0  0
    8.9854    2.8281  -14.0141 O   0  0  0  1  0  0
   10.9826    2.3096   -9.2685 O   0  0  0  1  0  0
   10.8731    4.3488  -15.2765 O   0  0  0  1  0  0
   13.5408    3.9967   -3.6155 O   0  0  0  1  0  0
   11.4208    3.4043  -11.2643 C   0  0  0  1  0  0
   12.7700    3.8330   -9.1904 C   0  0  0  1  0  0
   12.3719    4.1466  -11.9481 C   0  0  0  1  0  0
   11.6483    3.1110   -9.8489 C   0  0  0  1  0  0
   12.9633    3.8492   -7.7363 C   0  0  0  1  0  0
   10.2859    2.9479  -11.9278 C   0  0  0  1  0  0
   12.2000    4.4252  -13.2877 C   0  0  0  1  0  0
   10.0904    3.2554  -13.2776 C   0  0  0  1  0  0
   13.6409    4.5128   -9.9638 C   0  0  0  1  0  0
   11.0553    4.0069  -13.9500 C   0  0  0  1  0  0
   13.2800    5.0493   -7.1098 C   0  0  0  1  0  0
   12.8408    2.6900   -6.9727 C   0  0  0  1  0  0
   13.4828    5.0886   -5.7432 C   0  0  0  1  0  0
   13.0415    2.7368   -5.5974 C   0  0  0  1  0  0
   13.3617    3.9388   -4.9816 C   0  0  0  1  0  0
    7.8085    2.5864  -13.2687 C   0  0  0  1  0  0
   11.3137    5.1651  -15.4838 H   0  0
   14.2131    4.6327   -3.4043 H   0  0
    9.5727    2.3533  -11.3766 H   0  0
   12.9886    4.9629  -13.7809 H   0  0
   14.5072    4.9984   -9.5522 H   0  0
   13.3745    5.9660   -7.6755 H   0  0
   12.5917    1.7483   -7.4424 H   0  0
   13.7388    6.0288   -5.2961 H   0  0
   12.9530    1.8381   -5.0055 H   0  0
    7.5442    3.4574  -12.6696 H   0  0
    7.9154    1.7120  -12.6264 H   0  0
    6.9818    2.3925  -13.9521 H   0  0
  1  8  1  0
  1 14  1  0
  2 13  1  0
  2 21  1  0
  3  9  2  0
  4 15  1  0
  5 20  1  0
  6  8  2  0
  6  9  1  0
  6 11  1  0
  7  9  1  0
  7 10  1  0
  7 14  2  0
  8 12  1  0
 10 16  2  0
 10 17  1  0
 11 13  2  0
 12 15  2  0
 13 15  1  0
 16 18  1  0
 17 19  2  0
 18 20  2  0
 19 20  1  0
  4 22  1  0
  5 23  1  0
 11 24  1  0
 12 25  1  0
 14 26  1  0
 16 27  1  0
 17 28  1  0
 18 29  1  0
 19 30  1  0
 21 31  1  0
 21 32  1  0
 21 33  1  0
M  END
> <Name>
5317750

> <Binding Energy>
-51.0811

> <Ligand Energy>
2.9977

> <Protein Energy>
-7801.1566

> <Complex Energy>
-7849.2401

> <Complex Entropy>
-31.4814

> <Protein Entropy>
-31.4717

> <Ligand Entropy>
-19.2835

> <Entropic Energy>
19.2738

> <AbsoluteEnergy>
43.1559

> <ConfNumber>
1

> <Ionization pH>
7.21_PP

> <IonizationIndex>
1

> <MOL_NUMBER>
182

> <NumberOfIonizations>
3

> <NumberOfStereoisomers>
1

> <NumberOfTautomers>
2

> <PUBCHEM_ATOM_DEF_STEREO_COUNT>
0

> <PUBCHEM_ATOM_UDEF_STEREO_COUNT>
0

> <PUBCHEM_BOND_DEF_STEREO_COUNT>
0

> <PUBCHEM_BOND_UDEF_STEREO_COUNT>
0

> <PUBCHEM_CACTVS_TAUTO_COUNT>
10

> <PUBCHEM_COMPONENT_COUNT>
1

> <PUBCHEM_COMPOUND_CID>
5317750

> <PUBCHEM_CONFORMER_DIVERSEORDER>
1
2
3

> <PUBCHEM_CONFORMER_ID>
51247600000001

> <PUBCHEM_CONFORMER_RMSD>
0.6

> <PUBCHEM_COORDINATE_TYPE>
2
5
10

> <PUBCHEM_EFFECTIVE_ROTOR_COUNT>
2

> <PUBCHEM_FEATURE_SELFOVERLAP>
40.625

> <PUBCHEM_HEAVY_ATOM_COUNT>
21

> <PUBCHEM_ISOTOPIC_ATOM_COUNT>
0

> <PUBCHEM_MMFF94_ENERGY>
73.7807

> <PUBCHEM_MMFF94_PARTIAL_CHARGES>
30
1 -0.16
10 0.03
11 -0.15
12 -0.15
13 0.08
14 -0.07
15 0.08
16 -0.15
17 -0.15
18 -0.15
19 -0.15
2 -0.36
20 0.08
21 0.28
22 0.15
23 0.15
24 0.15
25 0.15
26 0.15
27 0.15
28 0.15
29 0.45
3 -0.57
33 0.45
4 -0.53
5 -0.53
6 0.09
7 -0.01
8 0.08
9 0.47

> <PUBCHEM_PHARMACOPHORE_FEATURES>
8
1 1 acceptor
1 2 acceptor
1 3 acceptor
1 4 donor
1 5 donor
6 1 6 7 8 9 14 rings
6 10 16 17 18 19 20 rings
6 6 8 11 12 13 15 rings

> <PUBCHEM_SHAPE_FINGERPRINT>
10 15 18115580582747215088
10912923 1 17561083630825683025
11471102 20 18411418427657214700
11796584 16 17022621991725045226
12107183 9 17054453751335123499
12236239 1 17632580457386520145
12616971 3 18060415824658462189
13140716 1 18270959154451537530
13533116 47 18342737403932357450
13544653 18 18408889529127523389
13685833 64 18408327696450947243
13760787 5 18342175570121696404
13862211 1 18412260606056083486
14386348 63 18113339730287526777
14573314 32 17313100834948787495
15196674 1 18411700946042219188
15788980 27 18410008827938280781
17349148 13 18131072631839150299
17844677 252 18261115149222097805
17862501 102 17775567537515094961
1813 80 18200609019966234412
19489759 90 16660360381463576101
200 152 18273494572556909289
20028762 73 18131628980486776607
20645477 70 18409166584915176366
21033648 29 18188474857235008477
21033650 10 15430878683713381732
21065201 7 17022617589663147513
21267235 1 18341055125662232614
21279426 13 18189893128260252477
21641784 216 18189071857663279660
21682296 61 18268153058917204654
2297311 6 16805045108257496205
23175994 123 18187087269518891477
23402539 116 18202279165327930125
23557571 272 17167855370447539285
23559900 14 17458347450406566522
26918003 58 18334579070445540545
2871803 45 18187364303135037872
3004659 81 18040435460925623146
3411729 13 15768630149184477880
345986 75 17988639636803915624
34797466 226 16443357489092153039
34934 24 18270112547972937556
3545911 37 18409167744883121108
4340502 62 17312817204183201410
465052 167 18411142441258662542
5104073 3 18341328882266312376
5281201 14 17967253095898037916
542803 24 17060341829375047369
602551 16 14764053606134550085

> <PUBCHEM_SHAPE_MULTIPOLES>
402.82
12.92
1.79
0.94
4.91
0.1
-0.05
-4.42
-0.59
-2.52
-0.18
0.91
-0.12
0

> <PUBCHEM_SHAPE_SELFOVERLAP>
893.815

> <PUBCHEM_SHAPE_VOLUME>
215.4

> <RelativeEnergy>
0

> <StereoisomerIndex>
1

> <TautomerIndex>
1

> <POSE_NUMBER>
1

> <LibDockScore>
92.0968

> <HotSpots>
14.01,6.27,-5.46,P,57,5
9.21,3.67,-12.86,A,26,11
11.21,4.87,-14.65,A,18,12

> <-In-Situ Starting Energy>
-534.909156

> <-In-Situ Final Energy>
21.7971386

> <In-Situ Gradient>
0.0009837819521

$$$$
5357070
  SciTegic09142310043D

 25 25  0  0  0  0            999 V2000
    6.3385    2.4501    3.1177 O   0  0  0  1  0  0
    5.8120    1.2132    3.5031 N   0  0  0  1  0  0
    7.5672    1.0371   -2.7126 C   0  0  0  1  0  0
    7.0496    0.7499   -1.3279 C   0  0  0  1  0  0
    6.5227    0.7429   -3.7929 C   0  0  0  1  0  0
    8.0869    2.4784   -2.7728 C   0  0  0  1  0  0
    7.6984   -0.1744   -0.5178 C   0  0  0  1  0  0
    5.9692    1.4526   -0.8077 C   0  0  0  1  0  0
    7.2948   -0.4164    0.7774 C   0  0  0  1  0  0
    5.5766    1.2456    0.5067 C   0  0  0  1  0  0
    6.2467    0.3133    1.2969 C   0  0  0  1  0  0
    5.9158    0.1569    2.7027 C   0  0  0  1  0  0
    6.8801    2.3057    2.3474 H   0  0
    8.3993    0.3616   -2.9013 H   0  0
    5.6931    1.4399   -3.7361 H   0  0
    6.1171   -0.2618   -3.6875 H   0  0
    6.9541    0.8158   -4.7903 H   0  0
    8.7748    2.6759   -1.9530 H   0  0
    7.2814    3.2007   -2.6631 H   0  0
    8.6067    2.6790   -3.7091 H   0  0
    8.5450   -0.7231   -0.8791 H   0  0
    5.4640    2.1864   -1.4209 H   0  0
    7.8317   -1.1408    1.3763 H   0  0
    4.7672    1.8338    0.9134 H   0  0
    5.7590   -0.8130    3.1675 H   0  0
  1  2  1  0
  2 12  2  0
  3  4  1  0
  3  5  1  0
  3  6  1  0
  4  7  2  0
  4  8  1  0
  7  9  1  0
  8 10  2  0
  9 11  2  0
 10 11  1  0
 11 12  1  0
  1 13  1  0
  3 14  1  0
  5 15  1  0
  5 16  1  0
  5 17  1  0
  6 18  1  0
  6 19  1  0
  6 20  1  0
  7 21  1  0
  8 22  1  0
  9 23  1  0
 10 24  1  0
 12 25  1  0
M  END
> <Name>
5357070

> <Binding Energy>
-40.8089

> <Ligand Energy>
0.1387

> <Protein Energy>
-7801.1566

> <Complex Energy>
-7841.8268

> <Complex Entropy>
-31.476

> <Protein Entropy>
-31.4717

> <Ligand Entropy>
-17.7495

> <Entropic Energy>
17.7452

> <AbsoluteEnergy>
24.6177

> <ConfNumber>
2

> <Ionization pH>
7.5

> <IonizationIndex>
1

> <MOL_NUMBER>
198

> <NumberOfIonizations>
1

> <NumberOfStereoisomers>
1

> <NumberOfTautomers>
1

> <PUBCHEM_ATOM_DEF_STEREO_COUNT>
0

> <PUBCHEM_ATOM_UDEF_STEREO_COUNT>
0

> <PUBCHEM_BOND_DEF_STEREO_COUNT>
1

> <PUBCHEM_BOND_UDEF_STEREO_COUNT>
0

> <PUBCHEM_CACTVS_TAUTO_COUNT>
2

> <PUBCHEM_COMPONENT_COUNT>
1

> <PUBCHEM_COMPOUND_CID>
5357070

> <PUBCHEM_CONFORMER_DIVERSEORDER>
1
3
2
4

> <PUBCHEM_CONFORMER_ID>
0051BE0E00000001

> <PUBCHEM_CONFORMER_RMSD>
0.6

> <PUBCHEM_COORDINATE_TYPE>
2
5
10

> <PUBCHEM_EFFECTIVE_ROTOR_COUNT>
2

> <PUBCHEM_FEATURE_SELFOVERLAP>
20.297

> <PUBCHEM_HEAVY_ATOM_COUNT>
12

> <PUBCHEM_ISOTOPIC_ATOM_COUNT>
0

> <PUBCHEM_MMFF94_ENERGY>
38.5263

> <PUBCHEM_MMFF94_PARTIAL_CHARGES>
16
1 -0.34
10 -0.15
11 0.09
12 0.3
2 -0.51
20 0.15
21 0.15
22 0.15
23 0.15
24 0.06
25 0.4
3 0.14
4 -0.14
7 -0.15
8 -0.15
9 -0.15

> <PUBCHEM_PHARMACOPHORE_FEATURES>
4
1 1 anion
1 2 acceptor
3 3 5 6 hydrophobe
6 4 7 8 9 10 11 rings

> <PUBCHEM_SHAPE_FINGERPRINT>
11062470 55 18412266137957655850
11206711 2 17131562651872296929
11401426 45 16845565392415645283
12138202 97 18201722889880703359
124424 183 18410286991205159747
12932764 1 18341896354529762018
13538477 17 18130223869567153326
13705890 14 11959732668289196724
14289901 80 17822862016360614440
14325111 11 18113902684077076890
14911166 2 17131838685014420044
14993402 34 17846506962592769604
15310529 11 18334576884022272098
15775835 57 18340773757658751764
16945 1 17131840879806037850
18186145 218 18339935856541050306
19026448 4 17968101940317602162
19026448 5 18114180864787608122
20645476 183 18270686505658773438
21293036 1 17346319318838447693
23235685 24 17489872639240016731
23402539 116 18260822705621300799
23402655 69 17273974645772865217
2748010 2 16843309353421889498
3248919 1 17917441916503734426
369184 2 18113901597661367034
8030462 33 16916802759601327854

> <PUBCHEM_SHAPE_MULTIPOLES>
236.1
6.02
1.16
1.1
0.22
0.09
-0.02
-1.09
-0.45
-0.09
-0.21
-0.24
-0.18
-0.13

> <PUBCHEM_SHAPE_SELFOVERLAP>
482.674

> <PUBCHEM_SHAPE_VOLUME>
137.6

> <RelativeEnergy>
0.0458228

> <StereoisomerIndex>
1

> <TautomerIndex>
1

> <POSE_NUMBER>
1

> <LibDockScore>
64.1114

> <HotSpots>
5.81,-0.73,4.54,P,96,2
7.61,2.87,-1.05,A,58,6
6.01,0.67,0.55,A,70,8

> <-In-Situ Starting Energy>
-2382.27138

> <-In-Situ Final Energy>
21.1616346

> <In-Situ Gradient>
0.0009346062644

$$$$
5359422
  SciTegic09142310043D

 60 65  0  0  0  0            999 V2000
   14.6704    2.0438  -15.8421 O   0  0  0  1  0  0
   16.2225    3.8660  -17.3156 O   0  0  0  1  0  0
   13.2149    3.1144  -13.2877 O   0  0  0  1  0  0
   10.1075    4.6340  -11.1067 O   0  0  0  1  0  0
   17.7590   -2.0461  -14.9897 N   0  3  1  1  0  0
   10.3682    2.1580  -12.4621 N   0  0  0  1  0  0
   16.3437    0.3914  -15.7828 C   0  0  1  1  0  0
   17.8973    0.3198  -15.7531 C   0  0  2  1  0  0
   18.2683   -0.6940  -14.6508 C   0  0  1  1  0  0
   15.7080    1.5144  -16.6554 C   0  0  2  1  0  0
   15.7643   -0.9940  -16.1273 C   0  0  0  1  0  0
   15.8983    0.8187  -14.4357 C   0  0  0  1  0  0
   17.8489   -0.1362  -13.2590 C   0  0  0  1  0  0
   16.2959   -2.0874  -15.1897 C   0  0  0  1  0  0
   16.4965    0.5281  -13.2411 C   0  0  0  1  0  0
   16.7504    2.5982  -16.9811 C   0  0  2  1  0  0
   18.4404    1.7024  -15.4950 C   0  0  0  1  0  0
   14.8396    1.7263  -14.4740 C   0  0  0  1  0  0
   17.6942    2.7663  -15.8222 C   0  0  0  1  0  0
   15.8990    0.9451  -12.0498 C   0  0  0  1  0  0
   18.4583   -2.6662  -16.1276 C   0  0  0  1  0  0
   14.2580    2.1942  -13.3180 C   0  0  0  1  0  0
   14.7709    1.7671  -12.0928 C   0  0  0  1  0  0
   12.1357    2.8124  -14.1490 C   0  0  0  1  0  0
   11.2338    1.7159  -13.5606 C   0  0  0  1  0  0
    9.2840    3.0940  -12.7789 C   0  0  0  1  0  0
   10.9414    2.3646  -11.1260 C   0  0  0  1  0  0
    9.6492    4.5440  -12.4387 C   0  0  0  1  0  0
   11.2443    3.8423  -10.8299 C   0  0  0  1  0  0
   15.8525    3.8807  -18.1951 H   0  0
   17.9770   -2.6423  -14.2065 H   0  0
   18.2890   -0.0126  -16.7137 H   0  0
   19.3555   -0.7851  -14.6220 H   0  0
   15.2853    1.1013  -17.5667 H   0  0
   14.6726   -0.9797  -16.0994 H   0  0
   16.0273   -1.2422  -17.1561 H   0  0
   17.9310   -0.8280  -12.4344 H   0  0
   18.5597    0.6461  -12.9891 H   0  0
   16.0108   -3.0789  -15.5465 H   0  0
   15.8213   -1.9790  -14.2154 H   0  0
   17.3597    2.2207  -17.8130 H   0  0
   19.3246    1.7672  -14.8898 H   0  0
   17.7776    3.7246  -15.3434 H   0  0
   16.3428    0.6947  -11.0967 H   0  0
   19.5356   -2.6305  -15.9609 H   0  0
   18.2124   -2.1524  -17.0566 H   0  0
   18.1553   -3.7112  -16.2093 H   0  0
   14.3255    2.1289  -11.1778 H   0  0
   12.4999    2.5262  -15.1263 H   0  0
   11.5640    3.7167  -14.3346 H   0  0
   10.5777    1.3240  -14.3366 H   0  0
   11.8226    0.8678  -13.2109 H   0  0
    9.0097    2.9884  -13.8293 H   0  0
    8.4177    2.7921  -12.1917 H   0  0
   11.8323    1.7457  -11.0199 H   0  0
   10.2091    1.9986  -10.4053 H   0  0
    8.7776    5.1759  -12.5584 H   0  0
   10.4048    4.9399  -13.1113 H   0  0
   11.5195    3.9662   -9.7826 H   0  0
   12.0856    4.1998  -11.4218 H   0  0
  1 10  1  0
  1 18  1  0
  2 16  1  0
  3 22  1  0
  3 24  1  0
  4 28  1  0
  4 29  1  0
  5  9  1  0
  5 14  1  0
  5 21  1  0
  6 25  1  0
  6 26  1  0
  6 27  1  0
  7  8  1  0
  7 10  1  0
  7 11  1  0
  7 12  1  0
  8  9  1  0
  8 17  1  0
  9 13  1  0
 10 16  1  0
 11 14  1  0
 12 15  2  0
 12 18  1  0
 13 15  1  0
 15 20  1  0
 16 19  1  0
 17 19  2  0
 18 22  2  0
 20 23  2  0
 22 23  1  0
 24 25  1  0
 26 28  1  0
 27 29  1  0
  2 30  1  0
  5 31  1  0
  8 32  1  0
  9 33  1  0
 10 34  1  0
 11 35  1  0
 11 36  1  0
 13 37  1  0
 13 38  1  0
 14 39  1  0
 14 40  1  0
 16 41  1  0
 17 42  1  0
 19 43  1  0
 20 44  1  0
 21 45  1  0
 21 46  1  0
 21 47  1  0
 23 48  1  0
 24 49  1  0
 24 50  1  0
 25 51  1  0
 25 52  1  0
 26 53  1  0
 26 54  1  0
 27 55  1  0
 27 56  1  0
 28 57  1  0
 28 58  1  0
 29 59  1  0
 29 60  1  0
M  CHG  1   5   1
M  END
> <Name>
5359422

> <Binding Energy>
-56.5199

> <Ligand Energy>
141.9116

> <Protein Energy>
-7801.1566

> <Complex Energy>
-7715.7649

> <Complex Entropy>
-31.4878

> <Protein Entropy>
-31.4717

> <Ligand Entropy>
-20.0662

> <Entropic Energy>
20.0501

> <AbsoluteEnergy>
72.0406

> <ConfNumber>
5

> <Ionization pH>
8_DP

> <IonizationIndex>
2

> <MOL_NUMBER>
201

> <NumberOfIonizations>
2

> <NumberOfStereoisomers>
2

> <NumberOfTautomers>
1

> <PUBCHEM_ATOM_DEF_STEREO_COUNT>
4

> <PUBCHEM_ATOM_UDEF_STEREO_COUNT>
1

> <PUBCHEM_BOND_DEF_STEREO_COUNT>
0

> <PUBCHEM_BOND_UDEF_STEREO_COUNT>
0

> <PUBCHEM_CACTVS_TAUTO_COUNT>
1

> <PUBCHEM_COMPONENT_COUNT>
1

> <PUBCHEM_COMPOUND_CID>
5359422

> <PUBCHEM_CONFORMER_DIVERSEORDER>
1
127
63
22
26
122
19
130
38
69
101
96
102
40
55
88
126
54
29
13
36
97
11
121
120
23
131
129
44
39
110
18
100
68
33
27
32
113
93
43
48
125
98
41
59
65
42
37
105
50
106
24
123
108
10
31
12
109
67
21
56
103
94
16
90
76
20
8
15
99
75
47
136
64
111
28
4
53
71
107
25
5
115
46
80
114
117
34
49
9
116
58
138
132
66
17
60
7
73
77
119
81
74
57
83
135
30
95
51
14
84
118
2
82
52
128
45
124
91
79
86
6
92
35
3
62
61
87
139
78
137
85
89
70
104
72
112
134
133
140

> <PUBCHEM_CONFORMER_ID>
0051C73E00000001

> <PUBCHEM_CONFORMER_RMSD>
0.8

> <PUBCHEM_COORDINATE_TYPE>
2
5
10

> <PUBCHEM_EFFECTIVE_ROTOR_COUNT>
6.4

> <PUBCHEM_FEATURE_SELFOVERLAP>
68.103

> <PUBCHEM_HEAVY_ATOM_COUNT>
29

> <PUBCHEM_ISOTOPIC_ATOM_COUNT>
0

> <PUBCHEM_MMFF94_ENERGY>
98.5229

> <PUBCHEM_MMFF94_PARTIAL_CHARGES>
33
1 -0.36
10 0.28
12 -0.14
13 0.14
14 0.27
15 -0.14
16 0.42
17 -0.29
18 0.08
19 -0.29
2 -0.68
20 -0.15
21 0.27
22 0.08
23 -0.15
24 0.28
25 0.27
26 0.27
27 0.27
28 0.28
29 0.28
3 -0.36
4 -0.56
40 0.15
41 0.15
42 0.15
46 0.15
47 0.4
5 -0.81
6 -0.81
7 0.14
8 0.14
9 0.27

> <PUBCHEM_PHARMACOPHORE_FEATURES>
13
1 1 acceptor
1 2 acceptor
1 2 donor
1 3 acceptor
1 4 acceptor
1 5 cation
1 6 cation
5 1 7 10 12 18 rings
6 12 15 18 20 22 23 rings
6 4 6 26 27 28 29 rings
6 5 7 8 9 11 14 rings
6 7 8 10 16 17 19 rings
6 7 8 9 12 13 15 rings

> <PUBCHEM_SHAPE_FINGERPRINT>
10670039 82 18335995160445348636
10871710 139 18338798909778258541
10906281 52 18195244404825812177
11524674 6 8358257038135825240
11578080 2 17843130195328752213
12166972 35 17603308167868119676
12236239 1 18261388923654710506
12596602 18 16805323301815986848
13383661 66 15621669433088875581
13911987 19 18338785746225651863
13994607 96 18113625585756651274
14705955 166 13335001829929631446
14787075 74 18186239528562686483
14840074 17 18336272305272280308
14910302 57 17561084666619884862
14955137 171 18059014007679121235
15001296 14 18190742128000811884
15183329 4 17918277524647132238
15575132 122 18335983077900796980
16945 1 17559085754691480283
17492 54 18266156401867132735
17980427 23 17676779668970849109
19958102 18 17988926631199262574
21049683 271 18260266395676919013
22907989 373 18124581003789000213
23198884 109 16988848271901832370
23559900 14 17560507530252114216
255183 451 17407666776523199559
484985 159 10303802211678022973
497634 4 17632298947332672746
57527293 21 18194403295473205267

> <PUBCHEM_SHAPE_MULTIPOLES>
563.37
15.06
2.49
1.6
29.11
0.97
-0.08
-0.51
-2.64
-1.35
-0.47
-0.2
0.15
-0.7

> <PUBCHEM_SHAPE_SELFOVERLAP>
1242.312

> <PUBCHEM_SHAPE_VOLUME>
299.9

> <RelativeEnergy>
6.43346

> <StereoisomerIndex>
1

> <TautomerIndex>
1

> <POSE_NUMBER>
1

> <LibDockScore>
76.9325

> <HotSpots>
11.21,4.87,-14.65,A,18,24
9.21,3.67,-12.86,A,26,27
7.21,2.27,-14.26,A,20,28

> <-In-Situ Starting Energy>
-126841.77

> <-In-Situ Final Energy>
-85.7410344

> <In-Situ Gradient>
0.06819212187

$$$$
5370611
  SciTegic09142310043D

 44 45  0  0  0  0            999 V2000
   13.7229    6.9430   -7.1832 O   0  0  0  1  0  0
   10.5703    6.3870   -5.6536 N   0  0  0  1  0  0
   11.3927    6.1526   -6.8939 C   0  0  2  1  0  0
   12.9017    5.9670   -6.5616 C   0  0  1  1  0  0
   11.2451    7.1174   -8.1119 C   0  0  0  1  0  0
    9.3097    7.1675   -5.6678 C   0  0  0  1  0  0
   13.3979    4.6092   -6.9989 C   0  0  0  1  0  0
   10.6398    5.3226   -4.6407 C   0  0  0  1  0  0
   13.6262    4.3464   -8.3465 C   0  0  0  1  0  0
   13.6498    3.6039   -6.0663 C   0  0  0  1  0  0
    8.9007    7.9744   -4.4577 C   0  0  0  1  0  0
   14.0831    3.1010   -8.7588 C   0  0  0  1  0  0
   14.1097    2.3581   -6.4746 C   0  0  0  1  0  0
    7.5912    8.2475   -4.2596 C   0  0  0  1  0  0
   14.3242    2.1052   -7.8222 C   0  0  0  1  0  0
    7.0824    8.9692   -3.0940 C   0  0  0  1  0  0
    6.5057    8.3010   -2.0237 C   0  0  0  1  0  0
    7.1317   10.3479   -3.0744 C   0  0  0  1  0  0
    6.1709    8.9924   -0.8645 C   0  0  0  1  0  0
    6.8162   11.0473   -1.9166 C   0  0  0  1  0  0
    6.3681   10.3629   -0.7954 C   0  0  0  1  0  0
   13.4444    7.8341   -6.9475 H   0  0
   11.0615    5.1900   -7.2768 H   0  0
   13.0646    6.0063   -5.4829 H   0  0
   11.1839    8.1631   -7.8337 H   0  0
   10.4106    6.9173   -8.7656 H   0  0
   12.0751    7.0117   -8.8101 H   0  0
    9.4074    7.8526   -6.4868 H   0  0
    8.4798    6.4997   -5.8619 H   0  0
   11.2614    5.6634   -3.8135 H   0  0
   11.0782    4.4208   -5.0678 H   0  0
    9.6407    5.0760   -4.2817 H   0  0
   13.4610    5.1285   -9.0728 H   0  0
   13.4996    3.7906   -5.0133 H   0  0
    9.6459    8.2466   -3.7334 H   0  0
   14.2593    2.9109   -9.8079 H   0  0
   14.3069    1.5852   -5.7454 H   0  0
    6.8637    7.9445   -4.9860 H   0  0
   14.6858    1.1373   -8.1402 H   0  0
    6.3826    7.2288   -2.0418 H   0  0
    7.4152   10.8436   -3.9840 H   0  0
    5.7851    8.4568   -0.0089 H   0  0
    6.9378   12.1186   -1.8765 H   0  0
    6.1693   10.8837    0.1290 H   0  0
  1  4  1  0
  2  3  1  0
  2  6  1  0
  2  8  1  0
  3  4  1  0
  3  5  1  0
  4  7  1  0
  6 11  1  0
  7  9  2  0
  7 10  1  0
  9 12  1  0
 10 13  2  0
 11 14  2  0
 12 15  2  0
 13 15  1  0
 14 16  1  0
 16 17  2  0
 16 18  1  0
 17 19  1  0
 18 20  2  0
 19 21  2  0
 20 21  1  0
  1 22  1  0
  3 23  1  0
  4 24  1  0
  5 25  1  0
  5 26  1  0
  5 27  1  0
  6 28  1  0
  6 29  1  0
  8 30  1  0
  8 31  1  0
  8 32  1  0
  9 33  1  0
 10 34  1  0
 11 35  1  0
 12 36  1  0
 13 37  1  0
 14 38  1  0
 15 39  1  0
 17 40  1  0
 18 41  1  0
 19 42  1  0
 20 43  1  0
 21 44  1  0
M  END
> <Name>
5370611

> <Binding Energy>
-31.8244

> <Ligand Energy>
38.6023

> <Protein Energy>
-7801.1566

> <Complex Energy>
-7794.3787

> <Complex Entropy>
-31.4806

> <Protein Entropy>
-31.4717

> <Ligand Entropy>
-19.4749

> <Entropic Energy>
19.466

> <AbsoluteEnergy>
51.3071

> <ConfNumber>
5

> <Ionization pH>
7.82_D

> <IonizationIndex>
2

> <MOL_NUMBER>
209

> <NumberOfIonizations>
2

> <NumberOfStereoisomers>
1

> <NumberOfTautomers>
1

> <PUBCHEM_ATOM_DEF_STEREO_COUNT>
0

> <PUBCHEM_ATOM_UDEF_STEREO_COUNT>
2

> <PUBCHEM_BOND_DEF_STEREO_COUNT>
1

> <PUBCHEM_BOND_UDEF_STEREO_COUNT>
0

> <PUBCHEM_CACTVS_TAUTO_COUNT>
1

> <PUBCHEM_COMPONENT_COUNT>
1

> <PUBCHEM_COMPOUND_CID>
5370611

> <PUBCHEM_CONFORMER_DIVERSEORDER>
37
15
39
24
30
38
25
26
18
23
41
11
35
9
10
49
36
3
19
8
40
42
29
5
4
31
46
13
32
16
6
2
28
50
45
17
43
34
51
1
44
48
7
12
27
22
21
20
14
33
47

> <PUBCHEM_CONFORMER_ID>
0051F2F300000025

> <PUBCHEM_CONFORMER_RMSD>
0.8

> <PUBCHEM_COORDINATE_TYPE>
2
5
10

> <PUBCHEM_EFFECTIVE_ROTOR_COUNT>
6

> <PUBCHEM_FEATURE_SELFOVERLAP>
25.371

> <PUBCHEM_HEAVY_ATOM_COUNT>
21

> <PUBCHEM_ISOTOPIC_ATOM_COUNT>
0

> <PUBCHEM_MMFF94_ENERGY>
67.0207

> <PUBCHEM_MMFF94_PARTIAL_CHARGES>
33
1 -0.68
10 -0.15
11 -0.29
12 -0.15
13 -0.15
14 -0.18
15 -0.15
16 0.03
17 -0.15
18 -0.15
19 -0.15
2 -0.81
20 -0.15
21 -0.15
3 0.27
32 0.15
33 0.15
34 0.15
35 0.4
36 0.15
37 0.15
38 0.15
39 0.15
4 0.42
40 0.15
41 0.15
42 0.15
43 0.15
44 0.15
6 0.41
7 -0.14
8 0.27
9 -0.15

> <PUBCHEM_PHARMACOPHORE_FEATURES>
5
1 1 acceptor
1 1 donor
1 2 cation
6 16 17 18 19 20 21 rings
6 7 9 10 12 13 15 rings

> <PUBCHEM_SHAPE_FINGERPRINT>
10366900 7 17916853631007771340
1100329 8 18340780277698844545
11370993 144 17416970521994013842
11578080 2 17605252138348481956
12363563 72 18409735100882443254
12422481 6 18055947375312857691
12506688 2 18194688296032204285
12523318 42 18119223122703254904
12553582 1 18198630023558458822
12596599 1 18409170982961323768
12633257 1 18340504347266358863
12788726 201 18336841852379688842
13140716 1 18412547621566771872
13533116 47 17906740559506191939
138480 1 15527709073288222165
14081887 123 18341039710686867338
14178342 30 18269281179310985630
14251757 5 18260844712723034806
14863182 85 16676695039680582351
14866123 147 18339647737861856283
15352361 1 18337390538615286462
20291156 8 18335139842607929934
20403669 9 18410011065273967703
20600515 1 18341901735992746916
20775530 9 18263927807297861566
21421861 104 18051707821226065409
21650355 55 18341613681078431873
23184049 29 18337954613765340652
23557571 272 18412255147479392946
23559900 14 18412255126284377764
3004659 81 18114183068427714654
3027735 51 18049424955992945677
345986 75 17770524202612717147
56633871 153 18340781398480087067
602551 16 18267303136982256562
6433294 58 17543637885897378307
9709674 26 18129097823578694966

> <PUBCHEM_SHAPE_MULTIPOLES>
421.32
9.25
4.12
1.24
8
1.06
0.12
-8.24
1.48
-3.23
0.67
0.46
0.45
0.14

> <PUBCHEM_SHAPE_SELFOVERLAP>
883.218

> <PUBCHEM_SHAPE_VOLUME>
238.8

> <RelativeEnergy>
8.09052

> <StereoisomerIndex>
1

> <TautomerIndex>
1

> <POSE_NUMBER>
6

> <LibDockScore>
104.1048

> <HotSpots>
10.81,8.27,-8.46,A,35,5
8.41,8.07,-4.86,A,38,11
6.61,10.07,-1.25,A,54,20

> <-In-Situ Starting Energy>
-19392.7625

> <-In-Situ Final Energy>
-9.2168964

> <In-Situ Gradient>
0.0009228215162

$$$$
5388962
  SciTegic09142310043D

 54 55  0  0  0  0            999 V2000
   14.3816    3.1917   -7.6996 O   0  0  0  1  0  0
   10.9224    5.4059   -5.3149 O   0  5  0  1  0  0
   11.2558    3.4497   -6.1102 O   0  0  0  1  0  0
   10.8752    3.1284  -12.2755 O   0  0  0  1  0  0
   11.1992    1.4163  -13.7178 O   0  0  0  1  0  0
   12.6101    4.4636   -8.3635 N   0  0  0  1  0  0
   12.3189    2.2627  -10.3944 N   0  0  0  1  0  0
   12.5290    5.2332   -7.1152 C   0  0  1  1  0  0
   12.0966    6.6314   -7.6102 C   0  0  0  1  0  0
   11.6830    6.4777   -9.0808 C   0  0  0  1  0  0
   11.6899    4.9794   -9.3710 C   0  0  0  1  0  0
   13.5594    3.4956   -8.5549 C   0  0  0  1  0  0
   13.6140    2.8003   -9.9467 C   0  0  2  1  0  0
   11.5072    4.6510   -6.0959 C   0  0  0  1  0  0
   12.2918    1.3509  -11.5438 C   0  0  1  1  0  0
   11.7546   -0.0453  -11.1707 C   0  0  0  1  0  0
   14.3547    3.6871  -10.9673 C   0  0  0  1  0  0
   12.7323   -0.8905  -10.3277 C   0  0  0  1  0  0
   11.4007    1.9649  -12.6416 C   0  0  0  1  0  0
   12.9508   -0.4019   -8.9166 C   0  0  0  1  0  0
   14.2386   -0.3561   -8.3856 C   0  0  0  1  0  0
   11.8838    0.0000   -8.1167 C   0  0  0  1  0  0
    9.9957    3.7823  -13.1888 C   0  0  0  1  0  0
   14.4594    0.1097   -7.0955 C   0  0  0  1  0  0
   12.1024    0.4692   -6.8286 C   0  0  0  1  0  0
   13.3898    0.5265   -6.3168 C   0  0  0  1  0  0
    8.5769    3.2489  -12.9918 C   0  0  0  1  0  0
   11.6246    2.9902  -10.5385 H   0  0
   13.5030    5.2887   -6.6256 H   0  0
   12.9398    7.3185   -7.5386 H   0  0
   11.2876    7.0718   -7.0279 H   0  0
   10.7246    6.9454   -9.3063 H   0  0
   12.4453    6.9536   -9.6964 H   0  0
   11.9776    4.7874  -10.3987 H   0  0
   10.7121    4.5301   -9.2075 H   0  0
   14.2522    1.9322   -9.7980 H   0  0
   13.2984    1.2588  -11.9510 H   0  0
   11.5728   -0.5993  -12.0932 H   0  0
   10.7798    0.0396  -10.6907 H   0  0
   13.8629    4.6357  -11.1677 H   0  0
   14.4750    3.1764  -11.9215 H   0  0
   15.3568    3.9225  -10.6060 H   0  0
   12.3853   -1.9198  -10.2640 H   0  0
   13.6894   -0.9215  -10.8474 H   0  0
   15.0839   -0.6702   -8.9783 H   0  0
   10.8749   -0.0209   -8.4963 H   0  0
   10.3298    3.6444  -14.2200 H   0  0
   10.0349    4.8520  -12.9826 H   0  0
   15.4640    0.1623   -6.7025 H   0  0
   11.2744    0.8262   -6.2344 H   0  0
   13.5568    0.9197   -5.3251 H   0  0
    8.3132    3.3032  -11.9403 H   0  0
    8.5034    2.2069  -13.3029 H   0  0
    7.8438    3.8280  -13.5516 H   0  0
  1 12  2  0
  2 14  1  0
  3 14  2  0
  4 19  1  0
  4 23  1  0
  5 19  2  0
  6  8  1  0
  6 11  1  0
  6 12  1  0
  7 13  1  0
  7 15  1  0
  8  9  1  0
  8 14  1  0
  9 10  1  0
 10 11  1  0
 12 13  1  0
 13 17  1  0
 15 16  1  0
 15 19  1  0
 16 18  1  0
 18 20  1  0
 20 21  2  0
 20 22  1  0
 21 24  1  0
 22 25  2  0
 23 27  1  0
 24 26  2  0
 25 26  1  0
  7 28  1  0
  8 29  1  0
  9 30  1  0
  9 31  1  0
 10 32  1  0
 10 33  1  0
 11 34  1  0
 11 35  1  0
 13 36  1  0
 15 37  1  0
 16 38  1  0
 16 39  1  0
 17 40  1  0
 17 41  1  0
 17 42  1  0
 18 43  1  0
 18 44  1  0
 21 45  1  0
 22 46  1  0
 23 47  1  0
 23 48  1  0
 24 49  1  0
 25 50  1  0
 26 51  1  0
 27 52  1  0
 27 53  1  0
 27 54  1  0
M  CHG  1   2  -1
M  END
> <Name>
5388962

> <Binding Energy>
-59.1206

> <Ligand Energy>
1.5383

> <Protein Energy>
-7801.1566

> <Complex Energy>
-7858.739

> <Complex Entropy>
-31.4843

> <Protein Entropy>
-31.4717

> <Ligand Entropy>
-19.874

> <Entropic Energy>
19.8614

> <AbsoluteEnergy>
49.5655

> <ConfNumber>
236

> <Ionization pH>
7.5

> <IonizationIndex>
1

> <MOL_NUMBER>
213

> <NumberOfIonizations>
1

> <NumberOfStereoisomers>
1

> <NumberOfTautomers>
1

> <PUBCHEM_ATOM_DEF_STEREO_COUNT>
3

> <PUBCHEM_ATOM_UDEF_STEREO_COUNT>
0

> <PUBCHEM_BOND_DEF_STEREO_COUNT>
0

> <PUBCHEM_BOND_UDEF_STEREO_COUNT>
0

> <PUBCHEM_CACTVS_TAUTO_COUNT>
1

> <PUBCHEM_COMPONENT_COUNT>
1

> <PUBCHEM_COMPOUND_CID>
5388962

> <PUBCHEM_CONFORMER_DIVERSEORDER>
1
15
7
31
32
27
12
13
26
5
34
20
22
6
25
16
3
24
23
11
29
2
19
28
17
9
4
30
21
8
18
33
14
10

> <PUBCHEM_CONFORMER_ID>
00523AA200000001

> <PUBCHEM_CONFORMER_RMSD>
1

> <PUBCHEM_COORDINATE_TYPE>
2
5
10

> <PUBCHEM_EFFECTIVE_ROTOR_COUNT>
12

> <PUBCHEM_FEATURE_SELFOVERLAP>
45.727

> <PUBCHEM_HEAVY_ATOM_COUNT>
27

> <PUBCHEM_ISOTOPIC_ATOM_COUNT>
0

> <PUBCHEM_MMFF94_ENERGY>
54.0411

> <PUBCHEM_MMFF94_PARTIAL_CHARGES>
29
1 -0.57
11 0.3
12 0.57
13 0.33
14 0.66
15 0.33
18 0.14
19 0.66
2 -0.65
20 -0.14
21 -0.15
22 -0.15
23 0.28
24 -0.15
25 -0.15
26 -0.15
3 -0.57
37 0.36
4 -0.43
45 0.5
46 0.15
47 0.15
5 -0.57
50 0.15
51 0.15
52 0.15
6 -0.66
7 -0.9
8 0.36

> <PUBCHEM_PHARMACOPHORE_FEATURES>
9
1 1 acceptor
1 2 acceptor
1 3 acceptor
1 5 acceptor
1 7 cation
1 7 donor
3 2 3 14 anion
5 6 8 9 10 11 rings
6 20 21 22 24 25 26 rings

> <PUBCHEM_SHAPE_FINGERPRINT>
10674148 151 15574710279441193893
11045515 52 17240758450800068292
11089746 13 12967125004783562750
12422481 6 17775573000898261556
12596602 18 18333734624251445434
12633257 1 17913796035358258595
12788726 201 18201447960856183888
13103583 49 18410302401648005907
13782708 43 16226320423132226106
14251764 30 18113334219876388010
14674994 50 16879091765684555954
15183329 4 11815898942547956978
17349148 13 13190343427221791710
17780758 139 18409164394144076578
17980427 23 15410325688965049129
1813 80 18334021592459861388
19319366 153 17547021083376531109
19958102 18 11819271119114824192
21033648 29 16343439340106438787
22182313 1 17345484673997735940
22950370 63 18186519908612503286
23559900 14 17896314908561942365
2838139 119 12103851146326228498
392239 28 18412554192739926866
4015057 19 14779564399783096556
4409770 3 18262791844873910573
484985 159 17897154728601649234
497634 4 18040998397962455460
5104073 3 18339654437510068169
5283173 99 7853274420610605126
6009941 240 18187079521117963709
7226269 152 18341047398573293337

> <PUBCHEM_SHAPE_MULTIPOLES>
516.34
15.02
2.85
1.99
23.18
1.91
-1.04
-7.57
6.6
-2.56
1.41
-2.04
-0.31
-0.66

> <PUBCHEM_SHAPE_SELFOVERLAP>
1064.32

> <PUBCHEM_SHAPE_VOLUME>
296.6

> <RelativeEnergy>
19.3518

> <StereoisomerIndex>
1

> <TautomerIndex>
1

> <POSE_NUMBER>
7

> <LibDockScore>
110.3466

> <HotSpots>
14.01,6.27,-5.46,P,57,2
10.81,8.27,-8.46,A,35,10
9.21,3.67,-12.86,A,26,23

> <-In-Situ Starting Energy>
-375.395016

> <-In-Situ Final Energy>
37.3353284

> <In-Situ Gradient>
0.0008777634741

$$$$
5464155
  SciTegic09142310043D

 45 47  0  0  0  0            999 V2000
   14.1908    2.7676   -7.9105 O   0  0  0  1  0  0
   14.5412    4.2427  -10.2503 O   0  0  0  1  0  0
   11.9724    4.3680  -12.6020 O   0  0  0  1  0  0
   11.9982    1.0059  -12.6772 O   0  0  0  1  0  0
   10.6824    4.6102   -5.4031 O   0  5  0  1  0  0
   15.1852    6.1833   -9.4330 O   0  0  0  1  0  0
   10.7741   -0.7159  -10.8979 O   0  5  0  1  0  0
   12.5590   -1.7787  -10.3529 O   0  0  0  1  0  0
   13.1538    1.6530   -5.4811 O   0  0  0  1  0  0
   13.7680    2.2487   -9.1255 C   0  0  0  1  0  0
   13.7981    3.0504  -10.2585 C   0  0  0  1  0  0
   13.2191    2.6580  -11.4540 C   0  0  0  1  0  0
   13.2360    0.9623   -9.2023 C   0  0  0  1  0  0
   12.6449    0.5532  -10.4058 C   0  0  0  1  0  0
   12.6368    1.4001  -11.5142 C   0  0  0  1  0  0
   13.3863    3.8470   -7.5582 C   0  0  0  1  0  0
   13.4268    5.0276   -8.3060 C   0  0  0  1  0  0
   13.1602    3.5934  -12.6357 C   0  0  0  1  0  0
   12.5266    6.0646   -8.0187 C   0  0  0  1  0  0
   12.4650    3.7268   -6.5158 C   0  0  0  1  0  0
   14.4564    5.2062   -9.3434 C   0  0  0  1  0  0
   13.2652    0.0712   -7.9852 C   0  0  0  1  0  0
   11.6370    5.9164   -6.9685 C   0  0  0  1  0  0
   11.5837    4.7556   -6.2335 C   0  0  0  1  0  0
   12.4072    7.3216   -8.8373 C   0  0  0  1  0  0
   11.9492   -0.7317  -10.5334 C   0  0  0  1  0  0
   10.7703    3.6454  -12.7992 C   0  0  0  1  0  0
   12.3153    2.5210   -5.7108 C   0  0  0  1  0  0
    9.6220    4.6204  -12.9785 C   0  0  0  1  0  0
   11.4539    0.2526  -12.4362 H   0  0
   13.2116    3.0266  -13.5666 H   0  0
   14.0220    4.2604  -12.6305 H   0  0
   14.0659    0.3592   -7.3051 H   0  0
   13.4515   -0.9663   -8.2541 H   0  0
   12.3154    0.1217   -7.4544 H   0  0
   10.9268    6.6916   -6.7312 H   0  0
   11.3596    7.4987   -9.0822 H   0  0
   12.9630    7.2634   -9.7707 H   0  0
   12.7571    8.1760   -8.2616 H   0  0
   10.8549    3.0106  -13.6828 H   0  0
   10.5538    3.0095  -11.9411 H   0  0
   11.3042    2.4880   -5.3100 H   0  0
    9.8543    5.2939  -13.7988 H   0  0
    9.4688    5.1993  -12.0698 H   0  0
    8.6909    4.1015  -13.2053 H   0  0
  1 10  1  0
  1 16  1  0
  2 11  1  0
  2 21  1  0
  3 18  1  0
  3 27  1  0
  4 15  1  0
  5 24  1  0
  6 21  2  0
  7 26  1  0
  8 26  2  0
  9 28  2  0
 10 11  2  0
 10 13  1  0
 11 12  1  0
 12 15  2  0
 12 18  1  0
 13 14  2  0
 13 22  1  0
 14 15  1  0
 14 26  1  0
 16 17  2  0
 16 20  1  0
 17 19  1  0
 17 21  1  0
 19 23  2  0
 19 25  1  0
 20 24  2  0
 20 28  1  0
 23 24  1  0
 27 29  1  0
  4 30  1  0
 18 31  1  0
 18 32  1  0
 22 33  1  0
 22 34  1  0
 22 35  1  0
 23 36  1  0
 25 37  1  0
 25 38  1  0
 25 39  1  0
 27 40  1  0
 27 41  1  0
 28 42  1  0
 29 43  1  0
 29 44  1  0
 29 45  1  0
M  CHG  2   5  -1   7  -1
M  END
> <Name>
5464155

> <Binding Energy>
-61.3184

> <Ligand Energy>
73.4113

> <Protein Energy>
-7801.1566

> <Complex Energy>
-7789.0637

> <Complex Entropy>
-31.4853

> <Protein Entropy>
-31.4717

> <Ligand Entropy>
-19.982

> <Entropic Energy>
19.9684

> <AbsoluteEnergy>
85.7997

> <ConfNumber>
39

> <Ionization pH>
7.53_DDP

> <IonizationIndex>
2

> <MOL_NUMBER>
220

> <NumberOfIonizations>
2

> <NumberOfStereoisomers>
1

> <NumberOfTautomers>
1

> <PUBCHEM_ATOM_DEF_STEREO_COUNT>
0

> <PUBCHEM_ATOM_UDEF_STEREO_COUNT>
0

> <PUBCHEM_BOND_DEF_STEREO_COUNT>
0

> <PUBCHEM_BOND_UDEF_STEREO_COUNT>
0

> <PUBCHEM_CACTVS_TAUTO_COUNT>
134

> <PUBCHEM_COMPONENT_COUNT>
1

> <PUBCHEM_COMPOUND_CID>
5464155

> <PUBCHEM_CONFORMER_DIVERSEORDER>
1
14
8
3
10
13
9
6
12
7
16
15
11
5
2
4

> <PUBCHEM_CONFORMER_ID>
0053605B00000001

> <PUBCHEM_CONFORMER_RMSD>
0.8

> <PUBCHEM_COORDINATE_TYPE>
2
5
10

> <PUBCHEM_EFFECTIVE_ROTOR_COUNT>
5.4

> <PUBCHEM_FEATURE_SELFOVERLAP>
60.985

> <PUBCHEM_HEAVY_ATOM_COUNT>
29

> <PUBCHEM_ISOTOPIC_ATOM_COUNT>
0

> <PUBCHEM_MMFF94_ENERGY>
123.163

> <PUBCHEM_MMFF94_PARTIAL_CHARGES>
33
1 -0.17
10 0.08
11 0.08
12 -0.14
13 -0.14
14 0.09
15 0.08
16 0.08
17 0.09
18 0.42
19 -0.14
2 -0.23
20 0.09
21 0.63
22 0.14
23 -0.15
24 0.08
25 0.14
26 0.63
27 0.28
28 0.42
3 -0.56
35 0.15
39 0.45
4 -0.53
42 0.06
43 0.45
47 0.5
5 -0.53
6 -0.57
7 -0.65
8 -0.57
9 -0.57

> <PUBCHEM_PHARMACOPHORE_FEATURES>
12
1 1 acceptor
1 3 acceptor
1 4 donor
1 5 donor
1 6 acceptor
1 7 acceptor
1 8 acceptor
1 9 acceptor
3 7 8 26 anion
6 10 11 12 13 14 15 rings
6 16 17 19 20 23 24 rings
7 1 2 10 11 16 17 21 rings

> <PUBCHEM_SHAPE_FINGERPRINT>
10006869 2 18196645418377068286
10616163 171 18410016511487054106
10670039 82 18338531832328451276
10930396 42 17763717173344007248
11370993 70 17978789008809199353
11552529 35 18340486660152982993
12422481 6 17758996665215200705
12553582 1 18192175852208117083
12633257 1 17828195498596800058
12788726 201 18267033932025594812
13004483 165 18410564098765145859
13140716 1 18193267491308253266
13911987 19 17755032126120202413
14178342 30 18337116665577306150
14223421 5 18338803299503542174
14787075 74 17913779576204498330
17492 89 18409727331313673666
20028762 73 18270401736543075126
21033648 144 18190446170083065204
21033648 29 17843654731200180658
21756936 100 18201145625623995996
23227448 37 18267020561818567989
23558518 356 18261959539808140099
23559900 14 17981044116085033174
3178227 256 17760381276687681947
3380486 145 18260275122845060781
350125 39 18410577297220251788
392239 28 18339365270215047984
463206 1 18047753981887365571
474 4 17837484159479541440
7097593 13 18116995473274338282
7471813 234 18198337567062587007
9709674 26 18196093244269966823

> <PUBCHEM_SHAPE_MULTIPOLES>
543.98
9.06
5.42
1.09
1
1.28
-0.07
-4.43
-1.48
4.31
-0.07
0.07
0.09
-1.67

> <PUBCHEM_SHAPE_SELFOVERLAP>
1196.675

> <PUBCHEM_SHAPE_VOLUME>
293.5

> <RelativeEnergy>
12.8452

> <StereoisomerIndex>
1

> <TautomerIndex>
1

> <POSE_NUMBER>
1

> <LibDockScore>
90.2921

> <HotSpots>
14.01,6.27,-5.46,P,57,5
10.81,8.27,-8.46,A,35,25
7.61,3.27,-13.26,A,25,27

> <-In-Situ Starting Energy>
-158.314739

> <-In-Situ Final Energy>
59.8090179

> <In-Situ Gradient>
0.0008977193154

$$$$
5702160
  SciTegic09142310043D

 36 36  0  0  0  0            999 V2000
    8.9146    8.9202   -3.2867 S   0  0  0  1  0  0
   12.2878    6.0141   -6.8522 S   0  0  0  1  0  0
    5.9223   10.2558    0.3222 S   0  0  0  1  0  0
   12.0498    4.9471   -7.7657 O   0  0  0  1  0  0
   12.9621    5.7495   -5.6187 O   0  0  0  1  0  0
   10.8653    6.7119   -6.5254 N   0  3  0  1  0  0
    6.8484   10.6652   -1.9897 N   0  0  0  1  0  0
   10.6292    5.4991   -4.4842 N   0  0  0  1  0  0
    6.6276   12.7835   -0.7147 N   0  0  0  1  0  0
   13.2994    7.1154   -7.6716 N   0  0  0  1  0  0
    6.7995   12.6258    1.5447 N   0  0  0  1  0  0
    5.8870   14.4343    0.7179 N   0  0  0  1  0  0
    8.7560    6.9979   -5.2097 C   0  0  0  1  0  0
    8.8641    8.5073   -4.9978 C   0  0  0  1  0  0
    7.2134    8.4249   -2.9504 C   0  0  0  1  0  0
   10.1457    6.3548   -5.4223 C   0  0  0  1  0  0
    6.7208    9.3186   -1.8717 C   0  0  0  1  0  0
    6.1299    8.9193   -0.6705 C   0  0  0  1  0  0
    6.5257   11.3237   -0.8642 C   0  0  0  1  0  0
    6.4755   13.3135    0.4910 C   0  0  0  1  0  0
   10.4762    7.2720   -7.2536 H   0  0
   11.5680    5.1366   -4.5051 H   0  0
   10.0802    5.2131   -3.6976 H   0  0
    6.7487   13.3767   -1.5114 H   0  0
   14.2020    6.6717   -7.7614 H   0  0
   13.4338    7.9316   -7.0695 H   0  0
    7.0855   11.6737    1.4970 H   0  0
    5.5428   14.9982   -0.0297 H   0  0
    5.7751   14.7503    1.6613 H   0  0
    8.2319    6.4989   -4.4003 H   0  0
    8.0982    6.8386   -6.0501 H   0  0
    7.9732    9.0067   -5.3430 H   0  0
    9.6792    8.9766   -5.5199 H   0  0
    7.1661    7.3907   -2.6179 H   0  0
    6.5650    8.5613   -3.8161 H   0  0
    5.8626    7.9069   -0.4080 H   0  0
  1 14  1  0
  1 15  1  0
  2  4  2  0
  2  5  2  0
  2  6  1  0
  2 10  1  0
  3 18  1  0
  3 19  1  0
  6 16  2  0
  7 17  1  0
  7 19  2  0
  8 16  1  0
  9 19  1  0
  9 20  1  0
 11 20  2  0
 12 20  1  0
 13 14  1  0
 13 16  1  0
 15 17  1  0
 17 18  2  0
  6 21  1  0
  8 22  1  0
  8 23  1  0
  9 24  1  0
 10 25  1  0
 10 26  1  0
 11 27  1  0
 12 28  1  0
 12 29  1  0
 13 30  1  0
 13 31  1  0
 14 32  1  0
 14 33  1  0
 15 34  1  0
 15 35  1  0
 18 36  1  0
M  CHG  1   6   1
M  END
> <Name>
5702160

> <Binding Energy>
-10.0337

> <Ligand Energy>
-15.3504

> <Protein Energy>
-7801.1566

> <Complex Energy>
-7826.5408

> <Complex Entropy>
-31.4822

> <Protein Entropy>
-31.4717

> <Ligand Entropy>
-19.8177

> <Entropic Energy>
19.8072

> <AbsoluteEnergy>
43.2734

> <ConfNumber>
13

> <Ionization pH>
6.89_DDP

> <IonizationIndex>
2

> <MOL_NUMBER>
228

> <NumberOfIonizations>
3

> <NumberOfStereoisomers>
1

> <NumberOfTautomers>
5

> <PUBCHEM_ATOM_DEF_STEREO_COUNT>
0

> <PUBCHEM_ATOM_UDEF_STEREO_COUNT>
0

> <PUBCHEM_BOND_DEF_STEREO_COUNT>
1

> <PUBCHEM_BOND_UDEF_STEREO_COUNT>
0

> <PUBCHEM_CACTVS_TAUTO_COUNT>
6

> <PUBCHEM_COMPONENT_COUNT>
1

> <PUBCHEM_COMPOUND_CID>
5702160

> <PUBCHEM_CONFORMER_DIVERSEORDER>
10
78
289
127
94
21
19
343
101
34
57
296
110
304
87
200
287
35
292
100
17
109
282
204
24
299
277
288
219
99
6
77
225
257
31
111
69
203
112
233
279
56
202
166
340
156
301
250
16
122
224
119
221
227
241
239
7
276
347
61
148
36
81
283
251
79
9
92
103
280
124
207
313
302
261
307
218
51
318
286
155
281
167
352
23
209
266
113
39
27
171
80
312
143
116
208
182
13
344
43
240
230
192
134
179
201
268
135
58
175
222
220
97
211
291
30
193
358
72
335
186
114
123
1
82
33
95
236
129
334
348
180
37
147
164
234
133
169
117
46
64
108
284
310
297
141
132
246
263
106
149
356
247
53
198
70
45
333
107
267
196
137
243
73
337
184
104
325
357
4
341
271
66
158
226
157
265
152
217
252
32
228
346
309
238
338
89
44
237
183
5
145
26
242
14
170
71
12
322
270
128
49
20
321
115
162
215
38
323
349
249
290
18
121
67
140
131
74
223
88
160
181
350
126
353
60
306
151
336
86
65
102
41
163
264
8
3
174
178
25
40
144
262
273
176
83
185
195
331
210
68
303
105
293
355
231
260
278
295
305
130
294
317
22
188
90
154
342
319
199
214
173
327
75
320
85
96
120
11
205
259
76
300
197
2
244
332
125
159
254
146
98
345
190
177
189
150
274
315
326
187
42
59
93
47
29
194
258
212
269
339
245
161
153
172
50
311
168
330
232
55
285
216
253
62
63
165
28
48
351
235
91
142
308
136
15
248
275
324
191
54
138
329
118
139
229
314
52
298
255
256
84
328
316
206
213
272
354

> <PUBCHEM_CONFORMER_ID>
005702100000000A

> <PUBCHEM_CONFORMER_RMSD>
1

> <PUBCHEM_COORDINATE_TYPE>
2
5
10

> <PUBCHEM_EFFECTIVE_ROTOR_COUNT>
7

> <PUBCHEM_FEATURE_SELFOVERLAP>
40.691

> <PUBCHEM_HEAVY_ATOM_COUNT>
20

> <PUBCHEM_ISOTOPIC_ATOM_COUNT>
0

> <PUBCHEM_MMFF94_ENERGY>
44.4397

> <PUBCHEM_MMFF94_PARTIAL_CHARGES>
29
1 -0.46
10 -0.98
11 -0.85
12 -0.85
13 0.06
14 0.23
15 0.41
16 0.44
17 0.05
18 -0.11
19 0.5
2 1.63
20 0.55
27 0.15
28 0.4
29 0.4
3 -0.08
30 0.42
31 0.42
32 0.4
33 0.4
34 0.4
35 0.4
4 -0.65
5 -0.65
6 -0.64
7 -0.57
8 -0.85
9 -0.58

> <PUBCHEM_PHARMACOPHORE_FEATURES>
8
1 10 donor
1 11 donor
1 12 donor
1 6 donor
1 8 donor
4 1 13 14 15 hydrophobe
4 9 11 12 20 cation
5 3 7 17 18 19 rings

> <PUBCHEM_SHAPE_FINGERPRINT>
10708813 3 18410577275202148265
11615756 256 18410013277208011638
12633257 1 18261382317810100558
14178342 30 18266447892396795560
14251764 38 18337953492768508672
14466204 15 18336815464596533658
16760501 71 18339088073611287329
17834072 32 18268712706346022467
19930381 70 17545879790517213875
20621476 7 18049449136542939473
21864079 5 18413106143519843239
22182937 141 18411705378828244515
22749437 52 18340480166199341441
23227448 37 18340206293926713471
23558518 356 18190184666366553303
350125 39 18411141359475341667
474 4 18334010601084824643
5048184 11 18410018766303284149
5939293 188 18340201878410234854
7832392 63 18410853222714542446

> <PUBCHEM_SHAPE_MULTIPOLES>
376.53
8.95
4.09
1.03
1.64
1.23
-0.25
3.53
-0.33
-0.26
-0.18
-0.04
0.16
-0.96

> <PUBCHEM_SHAPE_SELFOVERLAP>
724.079

> <PUBCHEM_SHAPE_VOLUME>
231.3

> <RelativeEnergy>
3.15299

> <StereoisomerIndex>
1

> <TautomerIndex>
2

> <POSE_NUMBER>
2

> <LibDockScore>
105.0521

> <HotSpots>
6.61,10.07,-1.25,A,54,3
14.01,6.27,-5.46,P,57,5
6.21,14.47,-1.25,P,80,12

> <-In-Situ Starting Energy>
-145.19501

> <-In-Situ Final Energy>
-1.2802032

> <In-Situ Gradient>
0.0008168169302

$$$$
6168296
  SciTegic09142310043D

 49 50  0  0  0  0            999 V2000
   10.3957    3.6490  -12.5262 O   0  0  0  1  0  0
   10.9815    0.5520  -14.2017 O   0  0  0  1  0  0
   13.5083    2.5675  -13.0991 O   0  0  0  1  0  0
   11.4752    4.2303  -15.5694 O   0  0  0  1  0  0
   11.9754    5.3413  -12.3722 O   0  0  0  1  0  0
    7.6108    2.4100  -12.6883 O   0  0  0  1  0  0
   10.2214    5.5626  -10.8095 O   0  0  0  1  0  0
   11.9223    5.4434   -4.1683 O   0  0  0  1  0  0
   14.5089    2.3419   -7.0045 O   0  0  0  1  0  0
   13.4247    3.0587   -4.6492 O   0  0  0  1  0  0
   11.2795    1.6975  -13.4240 C   0  0  1  1  0  0
   12.4289    2.5601  -14.0246 C   0  0  1  1  0  0
   10.0106    2.5342  -13.2790 C   0  0  1  1  0  0
   12.0458    4.0412  -14.2844 C   0  0  2  1  0  0
   11.1044    4.6379  -13.2272 C   0  0  1  1  0  0
    8.9032    1.8685  -12.4538 C   0  0  0  1  0  0
   11.5450    5.6180  -11.1278 C   0  0  0  1  0  0
   12.4762    5.9243  -10.2169 C   0  0  0  1  0  0
   12.1373    6.2198   -8.8298 C   0  0  0  1  0  0
   12.5049    5.4364   -7.8038 C   0  0  0  1  0  0
   13.3600    4.2425   -7.9549 C   0  0  0  1  0  0
   12.0348    5.7464   -6.4543 C   0  0  0  1  0  0
   12.3550    5.0118   -5.3794 C   0  0  0  1  0  0
   13.7075    3.4460   -6.9188 C   0  0  0  1  0  0
   13.1886    3.7823   -5.5682 C   0  0  0  1  0  0
   12.9067    5.4304   -3.1653 C   0  0  0  1  0  0
   15.0675    2.0065   -8.2587 C   0  0  0  1  0  0
   11.7557    0.0052  -14.3022 H   0  0
   13.9194    1.7101  -13.0408 H   0  0
   11.4827    5.1578  -15.8012 H   0  0
    7.4070    2.4040  -13.6162 H   0  0
   10.1210    5.3810   -9.8847 H   0  0
   11.5337    1.3763  -12.4076 H   0  0
   12.7796    2.1649  -14.9841 H   0  0
    9.6609    2.8366  -14.2679 H   0  0
   12.9808    4.5913  -14.2211 H   0  0
   10.3674    5.3191  -13.6536 H   0  0
    8.8901    0.7900  -12.5682 H   0  0
    9.1357    2.0170  -11.3999 H   0  0
   13.5190    5.9420  -10.4774 H   0  0
   11.5319    7.0956   -8.6732 H   0  0
   13.7043    4.0311   -8.9490 H   0  0
   11.4142    6.6161   -6.3459 H   0  0
   13.8519    5.8086   -3.5635 H   0  0
   13.0446    4.4234   -2.7753 H   0  0
   12.5982    6.0803   -2.3541 H   0  0
   15.6970    2.8153   -8.6322 H   0  0
   14.2848    1.7864   -8.9857 H   0  0
   15.6902    1.1177   -8.1536 H   0  0
  1 13  1  0
  1 15  1  0
  2 11  1  0
  3 12  1  0
  4 14  1  0
  5 15  1  0
  5 17  1  0
  6 16  1  0
  7 17  1  0
  8 23  1  0
  8 26  1  0
  9 24  1  0
  9 27  1  0
 10 25  2  0
 11 12  1  0
 11 13  1  0
 12 14  1  0
 13 16  1  0
 14 15  1  0
 17 18  2  0
 18 19  1  0
 19 20  2  0
 20 21  1  0
 20 22  1  0
 21 24  2  0
 22 23  2  0
 23 25  1  0
 24 25  1  0
  2 28  1  0
  3 29  1  0
  4 30  1  0
  6 31  1  0
  7 32  1  0
 11 33  1  0
 12 34  1  0
 13 35  1  0
 14 36  1  0
 15 37  1  0
 16 38  1  0
 16 39  1  0
 18 40  1  0
 19 41  1  0
 21 42  1  0
 22 43  1  0
 26 44  1  0
 26 45  1  0
 26 46  1  0
 27 47  1  0
 27 48  1  0
 27 49  1  0
M  END
> <Name>
6168296

> <Binding Energy>
-76.9403

> <Ligand Energy>
90.2871

> <Protein Energy>
-7801.1566

> <Complex Energy>
-7787.8099

> <Complex Entropy>
-31.485

> <Protein Entropy>
-31.4717

> <Ligand Entropy>
-20.1381

> <Entropic Energy>
20.1248

> <AbsoluteEnergy>
57.708

> <ConfNumber>
92

> <Ionization pH>
7.5

> <IonizationIndex>
1

> <MOL_NUMBER>
247

> <NumberOfIonizations>
1

> <NumberOfStereoisomers>
1

> <NumberOfTautomers>
2

> <PUBCHEM_ATOM_DEF_STEREO_COUNT>
0

> <PUBCHEM_ATOM_UDEF_STEREO_COUNT>
0

> <PUBCHEM_BOND_DEF_STEREO_COUNT>
1

> <PUBCHEM_BOND_UDEF_STEREO_COUNT>
0

> <PUBCHEM_CACTVS_TAUTO_COUNT>
2

> <PUBCHEM_COMPONENT_COUNT>
1

> <PUBCHEM_COMPOUND_CID>
6168296

> <PUBCHEM_CONFORMER_DIVERSEORDER>
1
44
15
22
42
7
3
28
9
43
33
50
12
25
11
27
23
41
5
46
49
34
8
14
2
39
24
35
48
32
29
17
20
21
38
30
31
13
40
4
37
19
18
45
10
16
26
47
6
36

> <PUBCHEM_CONFORMER_ID>
005E1EE800000001

> <PUBCHEM_CONFORMER_RMSD>
1

> <PUBCHEM_COORDINATE_TYPE>
2
5
10

> <PUBCHEM_EFFECTIVE_ROTOR_COUNT>
8.2

> <PUBCHEM_FEATURE_SELFOVERLAP>
76.148

> <PUBCHEM_HEAVY_ATOM_COUNT>
27

> <PUBCHEM_ISOTOPIC_ATOM_COUNT>
0

> <PUBCHEM_MMFF94_ENERGY>
94.9587

> <PUBCHEM_MMFF94_PARTIAL_CHARGES>
36
1 -0.56
10 -0.53
11 0.28
12 0.28
13 0.28
14 0.28
15 0.56
16 0.28
17 0.71
18 -0.14
19 -0.18
2 -0.68
20 0.03
21 -0.15
22 -0.15
23 0.08
24 0.08
25 0.08
26 0.28
27 0.28
3 -0.68
35 0.4
36 0.4
37 0.4
38 0.4
39 0.15
4 -0.68
40 0.15
41 0.15
42 0.15
43 0.45
5 -0.43
6 -0.68
7 -0.57
8 -0.36
9 -0.36

> <PUBCHEM_PHARMACOPHORE_FEATURES>
15
1 1 acceptor
1 10 donor
1 2 acceptor
1 2 donor
1 3 acceptor
1 3 donor
1 4 acceptor
1 4 donor
1 6 acceptor
1 6 donor
1 7 acceptor
1 8 acceptor
1 9 acceptor
6 1 11 12 13 14 15 rings
6 20 21 22 23 24 25 rings

> <PUBCHEM_SHAPE_FINGERPRINT>
10 15 18342742957124409453
100830 39 18409448046991505141
10595046 47 18410293652730999846
11315181 36 18260550052444138389
12107183 9 18049159964741708969
12236239 1 18260550047721695255
12596602 18 18411702079797216561
13073987 5 18410293622571276641
13403585 85 18341333370617938113
13533116 47 18411983542590703338
13785724 45 17839186208539535270
14211702 104 18114757022219717315
14251732 16 18410293657094733776
14251764 18 18341896329097581407
14341114 176 18409732845961250900
14347424 109 18341047432974722930
14461889 52 18262798596556523922
14933364 13 18412546526524152200
15183329 4 18410013212772894363
15361156 5 17968111784804728934
15419008 42 17840304424100156039
17844677 252 18410581690449731556
1813 80 16877944936127824846
20281389 69 18411982455394700393
21130935 74 18411141337753040371
21236236 1 18410291398543342397
23081809 10 17988920072250866503
23522609 53 17679047961765354564
23536379 177 18410293596838389881
23559900 14 18339918320780827449
23569943 247 17097201723882980386
3004659 81 18335141964896942974
3383291 50 17386858369080929555
34797466 226 17703800240290654932
3663271 9 18412829092206051281
4073 2 18115030813436229234
4144715 1 18409176488924910857
5104073 3 18335976498253427760
57307002 103 18272932692382485278

> <PUBCHEM_SHAPE_MULTIPOLES>
496.95
21.38
3.27
0.81
0.54
0.17
0.01
-0.75
4.62
-1.22
0.27
-0.17
-0.1
0.83

> <PUBCHEM_SHAPE_SELFOVERLAP>
1038.06

> <PUBCHEM_SHAPE_VOLUME>
279.5

> <RelativeEnergy>
16.0545

> <StereoisomerIndex>
1

> <TautomerIndex>
2

> <POSE_NUMBER>
1

> <LibDockScore>
87.9566

> <HotSpots>
11.01,5.47,-15.65,P,18,4
7.61,3.27,-13.26,A,25,16
13.41,5.07,-3.25,A,44,26

> <-In-Situ Starting Energy>
-25986.9866

> <-In-Situ Final Energy>
-27.9400261

> <In-Situ Gradient>
0.0007724089488

$$$$
6435825
  SciTegic09142310043D

 25 25  0  0  0  0            999 V2000
    5.8403   10.9627   -0.8237 O   0  0  0  1  0  0
    6.9152    8.2999   -4.8290 O   0  0  0  1  0  0
    7.9782   10.4175   -1.4026 O   0  0  0  1  0  0
    6.2939    8.6887    0.0142 C   0  0  0  1  0  0
    5.7640   10.0806    0.2968 C   0  0  0  1  0  0
    5.7462    7.9795   -1.2285 C   0  0  0  1  0  0
    7.5379    9.3255   -4.2111 C   0  0  0  1  0  0
    6.8764   10.8816   -1.6457 C   0  0  0  1  0  0
    6.7999   10.6047   -4.0557 C   0  0  0  1  0  0
    6.6226   11.3742   -2.9806 C   0  0  0  1  0  0
    8.8532    9.0015   -3.8724 C   0  0  0  1  0  0
    9.0617    7.7466   -4.4505 C   0  0  0  1  0  0
    7.8750    7.3696   -5.0566 C   0  0  0  1  0  0
    7.3421    8.8468   -0.0954 H   0  0
    6.1808    8.0604    0.8865 H   0  0
    6.2693   10.5520    1.1401 H   0  0
    4.7223    9.9260    0.5484 H   0  0
    5.9606    8.5094   -2.1509 H   0  0
    4.6811    7.8866   -1.1428 H   0  0
    6.1246    6.9665   -1.3479 H   0  0
    6.3230   10.9649   -4.9305 H   0  0
    6.2419   12.3624   -3.1377 H   0  0
    9.5595    9.5885   -3.3034 H   0  0
    9.9247    7.1065   -4.4638 H   0  0
    7.7409    6.4605   -5.6159 H   0  0
  1  5  1  0
  1  8  1  0
  2  7  1  0
  2 13  1  0
  3  8  2  0
  4  5  1  0
  4  6  1  0
  7  9  1  0
  7 11  2  0
  8 10  1  0
  9 10  2  0
 11 12  1  0
 12 13  2  0
  4 14  1  0
  4 15  1  0
  5 16  1  0
  5 17  1  0
  6 18  1  0
  6 19  1  0
  6 20  1  0
  9 21  1  0
 10 22  1  0
 11 23  1  0
 12 24  1  0
 13 25  1  0
M  END
> <Name>
6435825

> <Binding Energy>
-27.1145

> <Ligand Energy>
1.7624

> <Protein Energy>
-7801.1566

> <Complex Energy>
-7826.5087

> <Complex Entropy>
-31.4771

> <Protein Entropy>
-31.4717

> <Ligand Entropy>
-17.9152

> <Entropic Energy>
17.9098

> <AbsoluteEnergy>
18.9559

> <ConfNumber>
11

> <IonizationIndex>
1

> <MOL_NUMBER>
252

> <NumberOfIonizations>
1

> <NumberOfStereoisomers>
1

> <NumberOfTautomers>
1

> <PUBCHEM_ATOM_DEF_STEREO_COUNT>
0

> <PUBCHEM_ATOM_UDEF_STEREO_COUNT>
0

> <PUBCHEM_BOND_DEF_STEREO_COUNT>
1

> <PUBCHEM_BOND_UDEF_STEREO_COUNT>
0

> <PUBCHEM_CACTVS_TAUTO_COUNT>
1

> <PUBCHEM_COMPONENT_COUNT>
1

> <PUBCHEM_COMPOUND_CID>
6435825

> <PUBCHEM_CONFORMER_DIVERSEORDER>
1
86
81
78
130
83
82
114
146
87
71
119
139
101
124
73
66
134
128
52
133
35
67
89
59
92
4
96
84
49
54
99
64
76
31
126
58
24
72
85
125
123
8
45
111
135
100
65
141
88
147
17
127
56
138
122
47
95
68
3
129
132
106
10
112
110
93
50
21
40
11
145
53
12
46
144
5
51
28
148
42
149
136
6
19
43
80
120
91
23
108
41
143
113
9
75
104
90
137
77
140
32
118
69
142
55
14
121
74
15
2
57
16
34
109
63
98
22
13
60
36
38
25
20
94
70
48
107
62
103
33
131
61
79
97
7
26
102
27
18
117
29
39
30
105
44
116
115
37

> <PUBCHEM_CONFORMER_ID>
006233F100000001

> <PUBCHEM_CONFORMER_RMSD>
0.6

> <PUBCHEM_COORDINATE_TYPE>
2
5
10

> <PUBCHEM_EFFECTIVE_ROTOR_COUNT>
5

> <PUBCHEM_FEATURE_SELFOVERLAP>
20.3

> <PUBCHEM_HEAVY_ATOM_COUNT>
13

> <PUBCHEM_ISOTOPIC_ATOM_COUNT>
0

> <PUBCHEM_MMFF94_ENERGY>
21.7747

> <PUBCHEM_MMFF94_PARTIAL_CHARGES>
16
1 -0.43
10 -0.14
11 -0.15
12 -0.15
13 -0.01
2 -0.28
21 0.15
22 0.15
23 0.15
24 0.15
25 0.15
3 -0.57
5 0.28
7 0.09
8 0.71
9 -0.11

> <PUBCHEM_PHARMACOPHORE_FEATURES>
4
1 2 acceptor
1 3 acceptor
1 6 hydrophobe
5 2 7 11 12 13 rings

> <PUBCHEM_SHAPE_FINGERPRINT>
10857977 72 17025748908964496449
11127187 94 11312059837620524009
13296909 8 17895471543803235478
13764800 53 18410301332143217784
13839132 238 18337116674230797702
15775835 57 18342172263134158304
17834072 32 18407760348071817188
20281407 28 8646764504323657930
20605781 55 18411134697453427920
20645477 56 17772472533053796840
20653085 51 18060140903469834422
20871999 31 11383843640304433067
21028194 46 18413673491419191522
21296965 12 18342175591670470270
21524375 3 18341602703262900762
21947302 44 18199469865837528778
23402539 116 18194678392012310039
23403322 49 9511471008846609128
23419403 2 10297130512997351623
23500284 214 18412549816389947520
25 1 18059581239229529352
27216 239 18337391663938831904
305870 269 18188203204753304962
8050 44 18263923233310665501
81228 2 18117020942378273475

> <PUBCHEM_SHAPE_MULTIPOLES>
249.93
5.91
2.24
1.11
6.68
0.18
0.22
-4.73
-1.12
-0.54
0.05
-0.24
0.11
0.56

> <PUBCHEM_SHAPE_SELFOVERLAP>
508.631

> <PUBCHEM_SHAPE_VOLUME>
145.9

> <RelativeEnergy>
1.88595

> <StereoisomerIndex>
1

> <TautomerIndex>
1

> <POSE_NUMBER>
1

> <LibDockScore>
67.2073

> <HotSpots>
5.81,9.67,0.14,A,68,5
7.01,11.07,-2.85,A,47,10
8.41,8.07,-4.86,A,38,11

> <-In-Situ Starting Energy>
-808.081865

> <-In-Situ Final Energy>
-4.58402457

> <In-Situ Gradient>
0.0007380639318

$$$$
6436032
  SciTegic09142310043D

 72 74  0  0  0  0            999 V2000
   10.6662    4.2452  -12.6279 O   0  0  0  1  0  0
    9.5039    2.4761  -13.2797 O   0  0  0  1  0  0
   15.3714    2.0383  -11.4518 N   0  3  0  1  0  0
   15.5056    2.7197   -8.9780 N   0  0  0  1  0  0
   16.7672    2.3062  -11.0962 C   0  0  0  1  0  0
   14.8516    0.9608  -10.5898 C   0  0  0  1  0  0
   16.7470    2.9964   -9.7253 C   0  0  0  1  0  0
   15.0530    1.3272   -9.1102 C   0  0  0  1  0  0
   15.1074    1.8688  -12.8860 C   0  0  0  1  0  0
   14.4805    3.7749   -8.9119 C   0  0  0  1  0  0
   13.6323    1.9873  -13.1499 C   0  0  0  1  0  0
   13.7697    3.7606   -7.5850 C   0  0  0  1  0  0
   12.5226    4.2160   -7.3632 C   0  0  0  1  0  0
   12.9623    3.1806  -12.8466 C   0  0  0  1  0  0
   12.8953    0.8804  -13.5908 C   0  0  0  1  0  0
   11.8568    4.0981   -6.0112 C   0  0  0  1  0  0
   11.6006    3.2250  -12.9194 C   0  0  0  1  0  0
   11.6427    5.4544   -5.3079 C   0  0  0  1  0  0
   11.5039    0.9507  -13.6838 C   0  0  0  1  0  0
   11.6991    4.9162   -8.4163 C   0  0  0  1  0  0
   10.8689    2.1086  -13.3334 C   0  0  0  1  0  0
   10.2603    5.6985   -4.7504 C   0  0  0  1  0  0
    9.4406    6.7383   -5.0270 C   0  0  0  1  0  0
    9.3317    3.7753  -12.7325 C   0  0  0  1  0  0
    8.0394    6.9450   -4.5135 C   0  0  0  1  0  0
    7.9283    8.2300   -3.6507 C   0  0  0  1  0  0
    9.6719    7.8152   -6.0249 C   0  0  0  1  0  0
    7.0204    8.1658   -2.4461 C   0  0  0  1  0  0
    6.5476    9.2047   -1.7320 C   0  0  0  1  0  0
    6.9097   10.6386   -2.0118 C   0  0  0  1  0  0
    5.9237    9.0179   -0.3625 C   0  0  0  1  0  0
   14.8799    2.8649  -11.1410 H   0  0
   17.3232    1.3671  -11.0839 H   0  0
   17.2220    2.9614  -11.8412 H   0  0
   13.7863    0.8352  -10.7829 H   0  0
   15.3482    0.0228  -10.8442 H   0  0
   16.8357    4.0753   -9.8455 H   0  0
   17.5894    2.6624   -9.1180 H   0  0
   15.8202    0.6918   -8.6640 H   0  0
   14.1418    1.1841   -8.5271 H   0  0
   15.5027    0.9052  -13.2117 H   0  0
   15.6273    2.6544  -13.4364 H   0  0
   14.9735    4.7410   -9.0236 H   0  0
   13.7821    3.6618   -9.7405 H   0  0
   14.2992    3.2646   -6.7914 H   0  0
   13.4928    4.0652  -12.5268 H   0  0
   13.3931   -0.0466  -13.8410 H   0  0
   12.4684    3.4709   -5.3609 H   0  0
   10.9202    3.5554   -6.1237 H   0  0
   11.9270    6.2605   -5.9797 H   0  0
   12.3558    5.5286   -4.4860 H   0  0
   10.9412    0.0914  -14.0125 H   0  0
   10.8791    4.2762   -8.7382 H   0  0
   12.2863    5.1658   -9.2981 H   0  0
   11.2857    5.8502   -8.0400 H   0  0
    9.9266    4.9304   -4.0770 H   0  0
    8.8769    3.7109  -11.7451 H   0  0
    8.7329    4.4118  -13.3808 H   0  0
    7.3595    7.0382   -5.3553 H   0  0
    7.7441    6.0467   -3.9780 H   0  0
    8.9246    8.4617   -3.2717 H   0  0
    7.6592    9.0840   -4.2735 H   0  0
   10.5109    7.6240   -6.6908 H   0  0
    9.7640    8.7662   -5.5085 H   0  0
    8.7661    7.8682   -6.5927 H   0  0
    6.6970    7.1785   -2.1742 H   0  0
    6.0975   11.1334   -2.5355 H   0  0
    7.8006   10.6959   -2.6329 H   0  0
    7.1101   11.1812   -1.0893 H   0  0
    6.0522    7.9962   -0.0071 H   0  0
    4.8611    9.2358   -0.3413 H   0  0
    6.3970    9.6708    0.3718 H   0  0
  1 17  1  0
  1 24  1  0
  2 21  1  0
  2 24  1  0
  3  5  1  0
  3  6  1  0
  3  9  1  0
  4  7  1  0
  4  8  1  0
  4 10  1  0
  5  7  1  0
  6  8  1  0
  9 11  1  0
 10 12  1  0
 11 14  2  0
 11 15  1  0
 12 13  2  0
 13 16  1  0
 13 20  1  0
 14 17  1  0
 15 19  2  0
 16 18  1  0
 17 21  2  0
 18 22  1  0
 19 21  1  0
 22 23  2  0
 23 25  1  0
 23 27  1  0
 25 26  1  0
 26 28  1  0
 28 29  2  0
 29 30  1  0
 29 31  1  0
  3 32  1  0
  5 33  1  0
  5 34  1  0
  6 35  1  0
  6 36  1  0
  7 37  1  0
  7 38  1  0
  8 39  1  0
  8 40  1  0
  9 41  1  0
  9 42  1  0
 10 43  1  0
 10 44  1  0
 12 45  1  0
 14 46  1  0
 15 47  1  0
 16 48  1  0
 16 49  1  0
 18 50  1  0
 18 51  1  0
 19 52  1  0
 20 53  1  0
 20 54  1  0
 20 55  1  0
 22 56  1  0
 24 57  1  0
 24 58  1  0
 25 59  1  0
 25 60  1  0
 26 61  1  0
 26 62  1  0
 27 63  1  0
 27 64  1  0
 27 65  1  0
 28 66  1  0
 30 67  1  0
 30 68  1  0
 30 69  1  0
 31 70  1  0
 31 71  1  0
 31 72  1  0
M  CHG  1   3   1
M  END
> <Name>
6436032

> <Binding Energy>
-82.1332

> <Ligand Energy>
130.7757

> <Protein Energy>
-7801.1566

> <Complex Energy>
-7752.5142

> <Complex Entropy>
-31.486

> <Protein Entropy>
-31.4717

> <Ligand Entropy>
-20.7635

> <Entropic Energy>
20.7491

> <AbsoluteEnergy>
92.6048

> <ConfNumber>
109

> <Ionization pH>
7.08_DP

> <IonizationIndex>
1

> <MOL_NUMBER>
253

> <NumberOfIonizations>
2

> <NumberOfStereoisomers>
1

> <NumberOfTautomers>
1

> <PUBCHEM_ATOM_DEF_STEREO_COUNT>
0

> <PUBCHEM_ATOM_UDEF_STEREO_COUNT>
0

> <PUBCHEM_BOND_DEF_STEREO_COUNT>
2

> <PUBCHEM_BOND_UDEF_STEREO_COUNT>
0

> <PUBCHEM_CACTVS_TAUTO_COUNT>
1

> <PUBCHEM_COMPONENT_COUNT>
1

> <PUBCHEM_COMPOUND_CID>
6436032

> <PUBCHEM_CONFORMER_DIVERSEORDER>
1
24
146
150
99
108
73
153
226
58
79
42
177
164
139
90
62
269
295
286
172
154
70
85
107
287
206
60
121
176
30
151
268
126
209
28
112
166
184
52
160
138
262
245
284
328
37
109
81
182
256
224
258
165
298
113
77
247
68
128
255
98
26
187
48
317
3
61
71
142
232
6
157
80
227
13
123
122
274
237
236
44
169
129
83
326
306
234
161
192
133
64
140
312
31
252
259
235
240
22
216
67
29
243
46
162
233
222
11
115
199
110
149
145
114
309
18
189
197
183
246
103
91
214
141
111
178
296
38
271
59
134
47
225
75
144
118
132
20
19
188
45
220
170
15
82
211
322
34
117
120
41
181
65
171
76
89
204
242
43
96
116
174
104
179
137
14
303
249
265
51
205
97
72
219
92
266
175
56
267
84
94
200
87
12
307
35
221
127
106
39
191
57
173
131
63
105
5
159
331
314
119
250
4
25
203
213
95
23
93
198
17
254
66
167
190
208
292
9
136
185
283
229
323
215
195
223
100
16
163
168
69
277
311
257
201
2
218
196
21
297
158
101
318
313
239
264
299
102
27
148
40
194
33
8
310
329
54
231
241
228
248
36
251
253
50
147
308
280
315
125
301
186
279
207
244
319
294
304
7
180
124
88
86
270
155
281
212
275
143
238
10
305
78
53
152
135
278
333
210
302
285
288
193
130
261
32
217
289
156
321
230
202
55
273
325
291
276
327
316
49
320
330
290
282
263
260
300
293
324
74
332
272

> <PUBCHEM_CONFORMER_ID>
006234C000000001

> <PUBCHEM_CONFORMER_RMSD>
1.4

> <PUBCHEM_COORDINATE_TYPE>
2
5
10

> <PUBCHEM_EFFECTIVE_ROTOR_COUNT>
11.8

> <PUBCHEM_FEATURE_SELFOVERLAP>
61.098

> <PUBCHEM_HEAVY_ATOM_COUNT>
31

> <PUBCHEM_ISOTOPIC_ATOM_COUNT>
0

> <PUBCHEM_MMFF94_ENERGY>
57.1809

> <PUBCHEM_MMFF94_PARTIAL_CHARGES>
37
1 -0.36
10 0.41
11 -0.14
12 -0.29
13 -0.28
14 -0.15
15 -0.15
16 0.14
17 0.08
18 0.14
19 -0.15
2 -0.36
20 0.14
21 0.08
22 -0.29
23 -0.28
24 0.56
25 0.14
26 0.14
27 0.14
28 -0.29
29 -0.28
3 -0.81
30 0.14
31 0.14
4 -0.81
44 0.15
45 0.15
46 0.15
5 0.27
54 0.15
55 0.15
6 0.27
65 0.15
7 0.27
8 0.27
9 0.41

> <PUBCHEM_PHARMACOPHORE_FEATURES>
12
1 1 acceptor
1 2 acceptor
1 20 hydrophobe
1 27 hydrophobe
1 3 cation
1 4 cation
3 29 30 31 hydrophobe
4 13 16 18 22 hydrophobe
4 23 25 26 28 hydrophobe
5 1 2 17 21 24 rings
6 11 14 15 17 19 21 rings
6 3 4 5 6 7 8 rings

> <PUBCHEM_SHAPE_FINGERPRINT>
10462674 296 17477766149157425822
10794284 68 18192702561981882312
10864689 126 18121500146654069245
11513181 2 18126856125253647095
11578080 2 17057506317857488712
11756154 5 18336539418442751514
11828532 37 17896609582116384475
12422481 6 18195836113727085891
13402501 40 18340773645583153717
13561361 72 18409448076659961698
14725015 67 18337667508023182099
15264996 163 15311811981004476303
15968369 26 18051121494139912636
17627616 140 17755296764936077187
20764821 26 18265074516648086565
238918 7 18272368629299668662
3298306 158 18263916657947662101
445580 2 18410292523107381679
463206 1 17764308336678553956
508706 21 18265623090971317695
59755656 215 18119240663128794901
636783 150 17690847757694678294

> <PUBCHEM_SHAPE_MULTIPOLES>
616.26
11.09
6.33
1.8
1.74
1.23
-0.41
-2.1
1.82
-2.3
-0.93
0.2
-1.55
2.44

> <PUBCHEM_SHAPE_SELFOVERLAP>
1262.692

> <PUBCHEM_SHAPE_VOLUME>
357.2

> <RelativeEnergy>
11.739

> <StereoisomerIndex>
1

> <TautomerIndex>
1

> <POSE_NUMBER>
1

> <LibDockScore>
145.11

> <HotSpots>
8.41,8.07,-4.86,A,38,22
9.01,2.67,-14.05,A,21,24
7.21,9.27,-3.25,A,45,25

> <-In-Situ Starting Energy>
-18506.1116

> <-In-Situ Final Energy>
-85.7811055

> <In-Situ Gradient>
0.02716710886

$$$$
6436239
  SciTegic09142310043D

 43 42  0  0  0  0            999 V2000
    8.4872    3.1889   -1.2394 O   0  0  0  1  0  0
    6.7563    9.6960    0.1831 O   0  0  0  1  0  0
    7.2214    0.2898    1.8113 C   0  0  0  1  0  0
    7.2825   -0.8511    0.7808 C   0  0  0  1  0  0
    8.2426    1.3727    1.4634 C   0  0  0  1  0  0
    6.1600   -0.8108   -0.2600 C   0  0  0  1  0  0
    8.0119    2.7647    2.0591 C   0  0  0  1  0  0
    6.1563    0.3208   -1.2931 C   0  0  0  1  0  0
    9.1887    3.2060    2.9413 C   0  0  0  1  0  0
    5.6791    1.5651   -0.6027 C   0  0  0  1  0  0
    6.2268    2.7816   -0.6299 C   0  0  0  1  0  0
    7.1471    3.3522   -1.6692 C   0  0  1  1  0  0
    6.7941    4.7790   -1.7517 C   0  0  0  1  0  0
    6.3823    5.8992   -1.7646 C   0  0  0  1  0  0
    6.3782    9.6106   -1.1770 C   0  0  2  1  0  0
    6.0425    7.0417   -1.6627 C   0  0  0  1  0  0
    6.0088    8.2165   -1.4609 C   0  0  0  1  0  0
    7.5106    9.9171   -2.1267 C   0  0  0  1  0  0
    7.3684    9.9199   -3.4660 C   0  0  0  1  0  0
    8.9313    2.4571   -1.6631 H   0  0
    7.1848   10.5248    0.3886 H   0  0
    7.4380   -0.1122    2.7994 H   0  0
    6.2144    0.6989    1.8796 H   0  0
    7.2019   -1.7980    1.3162 H   0  0
    8.2464   -0.8890    0.2760 H   0  0
    8.2924    1.4515    0.3868 H   0  0
    9.2207    1.0210    1.7531 H   0  0
    6.1192   -1.7821   -0.7417 H   0  0
    5.2347   -0.6855    0.2763 H   0  0
    7.0475    2.8388    2.5558 H   0  0
    7.9247    3.4789    1.2451 H   0  0
    5.4772    0.0821   -2.1123 H   0  0
    7.1488    0.4574   -1.7210 H   0  0
   10.0334    3.5228    2.3325 H   0  0
    9.5966    2.3989    3.5295 H   0  0
    8.9114    4.0180    3.6135 H   0  0
    4.8807    1.4091    0.0965 H   0  0
    5.8938    3.4553    0.1301 H   0  0
    6.9703    2.8606   -2.6322 H   0  0
    5.5534   10.2993   -1.3545 H   0  0
    8.4728   10.1369   -1.7029 H   0  0
    6.4182    9.7377   -3.9357 H   0  0
    8.1992   10.0918   -4.1203 H   0  0
  1 12  1  0
  2 15  1  0
  3  4  1  0
  3  5  1  0
  4  6  1  0
  5  7  1  0
  6  8  1  0
  7  9  1  0
  8 10  1  0
 10 11  2  0
 11 12  1  0
 12 13  1  0
 13 14  3  0
 14 16  1  0
 15 17  1  0
 15 18  1  0
 16 17  3  0
 18 19  2  0
  1 20  1  0
  2 21  1  0
  3 22  1  0
  3 23  1  0
  4 24  1  0
  4 25  1  0
  5 26  1  0
  5 27  1  0
  6 28  1  0
  6 29  1  0
  7 30  1  0
  7 31  1  0
  8 32  1  0
  8 33  1  0
  9 34  1  0
  9 35  1  0
  9 36  1  0
 10 37  1  0
 11 38  1  0
 12 39  1  0
 15 40  1  0
 18 41  1  0
 19 42  1  0
 19 43  1  0
M  END
> <Name>
6436239

> <Binding Energy>
-11.9139

> <Ligand Energy>
50.4742

> <Protein Energy>
-7801.1566

> <Complex Energy>
-7762.5963

> <Complex Entropy>
-31.4788

> <Protein Entropy>
-31.4717

> <Ligand Entropy>
-19.3209

> <Entropic Energy>
19.3137

> <AbsoluteEnergy>
23.1867

> <ConfNumber>
53

> <IonizationIndex>
1

> <MOL_NUMBER>
255

> <NumberOfIonizations>
1

> <NumberOfStereoisomers>
1

> <NumberOfTautomers>
1

> <PUBCHEM_ATOM_DEF_STEREO_COUNT>
2

> <PUBCHEM_ATOM_UDEF_STEREO_COUNT>
0

> <PUBCHEM_BOND_DEF_STEREO_COUNT>
1

> <PUBCHEM_BOND_UDEF_STEREO_COUNT>
0

> <PUBCHEM_CACTVS_TAUTO_COUNT>
1

> <PUBCHEM_COMPONENT_COUNT>
1

> <PUBCHEM_COMPOUND_CID>
6436239

> <PUBCHEM_CONFORMER_DIVERSEORDER>
1
39
270
416
316
329
324
424
279
202
369
418
85
268
246
310
413
380
110
359
277
28
100
257
10
283
37
76
432
185
143
221
366
382
267
308
298
96
385
311
222
354
30
378
271
213
437
276
406
165
74
377
123
421
339
345
255
234
318
101
209
82
187
348
237
428
229
129
102
334
395
430
247
240
24
23
436
239
288
248
379
46
145
362
443
70
272
399
155
231
403
160
423
357
152
404
156
93
422
397
305
87
250
14
121
170
275
415
158
189
173
194
77
265
107
65
216
358
258
400
21
212
441
328
43
331
88
302
315
238
162
142
62
381
438
325
295
78
108
256
244
200
401
323
252
149
439
164
215
361
392
445
178
426
383
299
249
409
365
226
245
332
117
353
199
388
106
79
126
206
131
228
306
197
396
303
125
132
180
274
44
338
63
224
84
175
340
260
7
419
407
196
241
193
374
66
148
402
137
301
398
393
208
408
188
431
261
321
420
167
262
351
243
322
41
182
373
410
64
153
227
94
42
304
285
217
130
264
69
266
207
128
184
168
251
346
214
135
355
281
103
349
98
242
371
179
309
115
341
50
220
67
363
127
166
159
205
259
104
133
210
278
172
390
13
71
138
40
174
163
284
53
394
336
19
176
326
112
389
320
75
90
330
429
114
313
350
81
146
49
134
225
52
440
91
387
425
191
370
35
171
384
360
307
223
92
38
230
45
391
118
411
190
2
177
120
337
147
376
16
269
327
144
141
333
122
33
273
161
254
17
201
192
72
169
186
236
139
356
157
181
293
60
80
233
116
296
427
124
291
352
211
97
314
25
292
26
344
198
417
140
280
289
433
36
300
56
86
113
294
282
58
105
444
6
297
119
342
89
335
51
290
368
68
151
111
109
73
386
442
150
54
347
22
83
9
343
48
18
312
20
317
59
204
99
405
11
364
412
435
57
55
154
95
29
34
47
253
136
15
375
235
5
61
4
414
367
372
12
286
195
3
232
218
434
8
263
183
32
203
287
31
27
319
219

> <PUBCHEM_CONFORMER_ID>
0062358F00000001

> <PUBCHEM_CONFORMER_RMSD>
0.8

> <PUBCHEM_COORDINATE_TYPE>
2
5
10

> <PUBCHEM_EFFECTIVE_ROTOR_COUNT>
8

> <PUBCHEM_FEATURE_SELFOVERLAP>
30.447

> <PUBCHEM_HEAVY_ATOM_COUNT>
19

> <PUBCHEM_ISOTOPIC_ATOM_COUNT>
0

> <PUBCHEM_MMFF94_ENERGY>
4.7609

> <PUBCHEM_MMFF94_PARTIAL_CHARGES>
18
1 -0.68
10 -0.29
11 -0.29
12 0.62
13 -0.2
15 0.62
17 -0.2
18 -0.29
19 -0.3
2 -0.68
35 0.15
36 0.15
38 0.4
40 0.15
41 0.4
42 0.15
43 0.15
8 0.14

> <PUBCHEM_PHARMACOPHORE_FEATURES>
6
1 1 acceptor
1 1 donor
1 19 hydrophobe
1 2 acceptor
1 2 donor
1 9 hydrophobe

> <PUBCHEM_SHAPE_FINGERPRINT>
11059845 2 17844264942910729049
11954058 11 18339077224028135853
13533116 47 18196367255194812865
13673619 4 18411418389171574016
13757389 114 17606673626716538357
13911852 28 18412258445882205695
14123256 34 18408324376029764258
14251740 57 18264763445125592233
14251764 30 18412543202182463946
14420673 8 18411703179873606203
14428016 167 18343013411020815087
14931854 50 17458339719682290178
15061688 2 9367345950851660384
17492 54 14490191609396167632
20621476 21 18341332198033590702
20645477 70 17097760534231446029
21095086 4 18412268332945225358
21365058 113 17676491691651139709
21585481 104 15286471033965965622
21682296 61 18410574028866424435
2748736 6 8862941671610094062
2838139 119 8430319026051416712
2916195 48 9943807807019226965
393628 179 10665518477927766014
393628 194 9367336050778431475
4107672 100 17677893431448150573
437815 12 18411138051838613427
465052 167 18202002165897175980
5104073 3 12463303535345411989
5283384 27 10519984829329893387
543368 44 8574441928790823779
58260988 114 17987244326731734800
6327066 14 8070018970266774842
636775 8 18271534083881306574
77188 2 18341330075840777312
8217 86 18336264562079131256

> <PUBCHEM_SHAPE_MULTIPOLES>
379.27
21.67
3.88
1.23
9.37
0.47
0.22
32.14
0
0.97
0.97
-0.34
-0.81
0.75

> <PUBCHEM_SHAPE_SELFOVERLAP>
717.771

> <PUBCHEM_SHAPE_VOLUME>
230.5

> <RelativeEnergy>
6.98016

> <StereoisomerIndex>
1

> <TautomerIndex>
1

> <POSE_NUMBER>
8

> <LibDockScore>
100.8851

> <HotSpots>
6.61,-0.93,-0.06,A,65,4
9.21,2.67,2.54,A,84,9
7.01,11.07,-2.85,A,47,18

> <-In-Situ Starting Energy>
-7340.83614

> <-In-Situ Final Energy>
-39.3092771

> <In-Situ Gradient>
0.000979508434

$$$$
6437604
  SciTegic09142310043D

 60 64  0  0  0  0            999 V2000
   11.0903    3.5213  -11.7265 O   0  0  0  1  0  0
    9.9580    3.6883   -5.0361 O   0  0  0  1  0  0
   11.3687    5.3197  -13.0372 O   0  0  0  1  0  0
   12.5439    4.3685   -7.9675 N   0  3  1  1  0  0
   12.1323    3.1863   -5.4924 N   0  0  0  1  0  0
   12.5725    1.8766   -7.5496 C   0  0  1  1  0  0
   14.3221    3.2669   -6.5327 C   0  0  2  1  0  0
   12.1342    3.0427   -8.4805 C   0  0  2  1  0  0
   14.0602    1.9353   -7.2334 C   0  0  0  1  0  0
   13.5461    3.4157   -5.2162 C   0  0  1  1  0  0
   13.9427    4.3812   -7.5358 C   0  0  0  1  0  0
   11.8577    1.9231   -6.1940 C   0  0  0  1  0  0
   12.5613    2.8674   -9.9461 C   0  0  0  1  0  0
   13.9061    4.6699   -4.3882 C   0  0  0  1  0  0
   12.2777    5.5219   -8.8474 C   0  0  0  1  0  0
   12.0730    4.0235  -10.8408 C   0  0  2  1  0  0
   11.4237    5.1609  -10.0462 C   0  0  0  1  0  0
   12.7262    5.2711   -3.6431 C   0  0  0  1  0  0
   11.1305    4.0159   -5.0708 C   0  0  0  1  0  0
   11.5559    5.4036   -4.6039 C   0  0  0  1  0  0
   10.8351    4.2389  -12.8029 C   0  0  0  1  0  0
    9.8658    3.6720  -13.7391 C   0  0  0  1  0  0
    8.7851    2.9918  -13.3014 C   0  0  0  1  0  0
    7.9043    2.3257  -14.2666 C   0  0  0  1  0  0
    6.5718    2.1404  -14.0447 C   0  0  0  1  0  0
    8.4280    1.6944  -15.3506 C   0  0  0  1  0  0
    5.7966    1.3678  -14.9388 C   0  0  0  1  0  0
    7.6417    1.1270  -16.3569 C   0  0  0  1  0  0
    6.2969    0.9376  -16.1442 C   0  0  0  1  0  0
   11.9847    4.5214   -7.1476 H   0  0
   12.3429    0.9246   -8.0314 H   0  0
   15.3725    3.2386   -6.2569 H   0  0
   11.0434    3.0422   -8.4806 H   0  0
   14.6585    1.8457   -8.1410 H   0  0
   14.3516    1.1014   -6.5919 H   0  0
   13.8330    2.5757   -4.5952 H   0  0
   14.1330    5.3699   -7.1178 H   0  0
   14.5587    4.2895   -8.4329 H   0  0
   12.1864    1.0925   -5.5669 H   0  0
   10.8194    1.7584   -6.3505 H   0  0
   13.6471    2.7955  -10.0108 H   0  0
   12.1778    1.9229  -10.3333 H   0  0
   14.6729    4.4148   -3.6597 H   0  0
   14.3343    5.4451   -5.0154 H   0  0
   11.7992    6.2976   -8.2481 H   0  0
   13.2187    5.9421   -9.2101 H   0  0
   12.9267    4.4040  -11.4101 H   0  0
   11.2681    6.0382  -10.6721 H   0  0
   10.4367    4.8420   -9.7244 H   0  0
   12.9992    6.2415   -3.2324 H   0  0
   12.4575    4.6529   -2.7897 H   0  0
   11.8239    6.0004   -5.4750 H   0  0
   10.7069    5.8843   -4.1217 H   0  0
   10.0726    3.8281  -14.7787 H   0  0
    8.5539    2.9208  -12.2540 H   0  0
    6.2609    2.5293  -13.1011 H   0  0
    9.4796    1.6036  -15.2839 H   0  0
    4.8686    0.8967  -14.6970 H   0  0
    8.0593    0.7439  -17.2757 H   0  0
    5.6886    0.3959  -16.8547 H   0  0
  1 16  1  0
  1 21  1  0
  2 19  2  0
  3 21  2  0
  4  8  1  0
  4 11  1  0
  4 15  1  0
  5 10  1  0
  5 12  1  0
  5 19  1  0
  6  8  1  0
  6  9  1  0
  6 12  1  0
  7  9  1  0
  7 10  1  0
  7 11  1  0
  8 13  1  0
 10 14  1  0
 13 16  1  0
 14 18  1  0
 15 17  1  0
 16 17  1  0
 18 20  1  0
 19 20  1  0
 21 22  1  0
 22 23  2  0
 23 24  1  0
 24 25  2  0
 24 26  1  0
 25 27  1  0
 26 28  2  0
 27 29  2  0
 28 29  1  0
  4 30  1  0
  6 31  1  0
  7 32  1  0
  8 33  1  0
  9 34  1  0
  9 35  1  0
 10 36  1  0
 11 37  1  0
 11 38  1  0
 12 39  1  0
 12 40  1  0
 13 41  1  0
 13 42  1  0
 14 43  1  0
 14 44  1  0
 15 45  1  0
 15 46  1  0
 16 47  1  0
 17 48  1  0
 17 49  1  0
 18 50  1  0
 18 51  1  0
 20 52  1  0
 20 53  1  0
 22 54  1  0
 23 55  1  0
 25 56  1  0
 26 57  1  0
 27 58  1  0
 28 59  1  0
 29 60  1  0
M  CHG  1   4   1
M  END
> <Name>
6437604

> <Binding Energy>
-56.6094

> <Ligand Energy>
54.3014

> <Protein Energy>
-7801.1566

> <Complex Energy>
-7803.4647

> <Complex Entropy>
-31.4849

> <Protein Entropy>
-31.4717

> <Ligand Entropy>
-20.2717

> <Entropic Energy>
20.2585

> <AbsoluteEnergy>
39.5705

> <ConfNumber>
5

> <Ionization pH>
7.5

> <IonizationIndex>
1

> <MOL_NUMBER>
256

> <NumberOfIonizations>
1

> <NumberOfStereoisomers>
1

> <NumberOfTautomers>
1

> <PUBCHEM_ATOM_DEF_STEREO_COUNT>
5

> <PUBCHEM_ATOM_UDEF_STEREO_COUNT>
0

> <PUBCHEM_BOND_DEF_STEREO_COUNT>
1

> <PUBCHEM_BOND_UDEF_STEREO_COUNT>
0

> <PUBCHEM_CACTVS_TAUTO_COUNT>
1

> <PUBCHEM_COMPONENT_COUNT>
1

> <PUBCHEM_COMPOUND_CID>
6437604

> <PUBCHEM_CONFORMER_DIVERSEORDER>
1
22
25
32
17
24
16
11
34
12
9
8
18
28
30
13
21
31
29
15
6
2
23
26
36
7
27
33
19
35
10
5
20
14
4
3

> <PUBCHEM_CONFORMER_ID>
00623AE400000001

> <PUBCHEM_CONFORMER_RMSD>
0.8

> <PUBCHEM_COORDINATE_TYPE>
2
5
10

> <PUBCHEM_EFFECTIVE_ROTOR_COUNT>
6

> <PUBCHEM_FEATURE_SELFOVERLAP>
42.302

> <PUBCHEM_HEAVY_ATOM_COUNT>
29

> <PUBCHEM_ISOTOPIC_ATOM_COUNT>
0

> <PUBCHEM_MMFF94_ENERGY>
70.3575

> <PUBCHEM_MMFF94_PARTIAL_CHARGES>
29
1 -0.43
10 0.3
11 0.27
12 0.3
15 0.27
16 0.28
19 0.57
2 -0.57
20 0.06
21 0.71
22 -0.14
23 -0.18
24 0.03
25 -0.15
26 -0.15
27 -0.15
28 -0.15
29 -0.15
3 -0.57
4 -0.81
5 -0.66
53 0.15
54 0.15
55 0.15
56 0.15
57 0.15
58 0.15
59 0.15
8 0.27

> <PUBCHEM_PHARMACOPHORE_FEATURES>
8
1 2 acceptor
1 3 acceptor
1 4 cation
6 24 25 26 27 28 29 rings
6 4 6 7 8 9 11 rings
6 4 8 13 15 16 17 rings
6 5 10 14 18 19 20 rings
6 5 6 7 9 10 12 rings

> <PUBCHEM_SHAPE_FINGERPRINT>
10622 236 18115017498810621883
10763959 59 8358272448509832545
10939801 23 18199186363747024324
11135609 12 18334845104751103837
117089 54 18410300181409331323
11796584 16 18120648041964066648
11963148 33 18337382850471345939
12107183 9 18271541831996975417
12422481 6 17561366158549624735
14216079 64 18411698821098810135
14251740 57 18272377425514140262
14251751 18 18338230470977673123
14347332 77 18335138674930771797
14848178 5 18337666404206115245
15183329 4 18272096024089865779
15475509 35 18343014527695805897
15510800 12 18200873950728960007
17134984 74 18262244433520958311
17492 89 18267023864843649526
17857418 61 18411138039449765067
17909252 39 18343022168295062443
19301679 30 18411989070529988049
1979834 28 17418102013711198567
20028762 73 18335698300205603154
20775438 99 17749956690452418154
21033648 29 15339125594286166561
21197605 99 18411133654436264986
21315759 227 18266734671647353342
21585483 132 17698709631153229335
23424784 1240 18200595787230244734
23522609 53 18120123717348571945
25222932 49 18201434834887014222
2838139 119 8142085334580747129
3004659 81 18334299764158340934
312425 54 17917440804777235305
404807 78 18044950201429498178
439807 62 18334012792230185091
463206 1 18339642347224790691
50009960 94 17825082858494025882
5104073 3 18131348570782917369
57724786 102 10663820762805817432
5874358 3 16227429787293771354
59682541 52 14851870453273334889
66674814 147 17603867758682719402
6679774 75 17335597083182532608
7970288 3 18337388340161561195

> <PUBCHEM_SHAPE_MULTIPOLES>
569.24
16.94
4.24
1.41
30.01
1.46
-0.07
15.43
1.53
-0.67
0.06
-2.1
0.03
-1.27

> <PUBCHEM_SHAPE_SELFOVERLAP>
1225.6

> <PUBCHEM_SHAPE_VOLUME>
304

> <RelativeEnergy>
4.73581

> <StereoisomerIndex>
1

> <TautomerIndex>
1

> <POSE_NUMBER>
1

> <LibDockScore>
120.7597

> <HotSpots>
13.41,5.07,-3.25,A,44,18
9.21,3.67,-12.86,A,26,22
7.21,2.27,-14.26,A,20,25

> <-In-Situ Starting Energy>
-2472.40522

> <-In-Situ Final Energy>
-64.4950114

> <In-Situ Gradient>
0.0009849416926

$$$$
9552079
  SciTegic09142310043D

 67 68  0  0  0  0            999 V2000
    6.0328    0.3419    3.2198 Cl  0  0  0  1  0  0
    8.8937    3.2578  -13.1363 Cl  0  0  0  1  0  0
    9.2820   -0.1369   -5.0930 N   0  3  0  1  0  0
   13.7801    3.7321   -8.1939 N   0  0  0  1  0  0
    8.1993    1.2947   -3.6855 N   0  0  0  1  0  0
   14.3814    5.7708   -9.1853 N   0  0  0  1  0  0
    6.9809   -0.4407   -4.8629 N   0  0  0  1  0  0
   12.8449    5.7560   -7.4681 N   0  0  0  1  0  0
    6.1203    1.6380   -2.4747 N   0  3  0  1  0  0
   14.2272    4.1866  -10.9332 N   0  3  0  1  0  0
    7.8883    3.0888   -2.2995 N   0  0  0  1  0  0
   15.5656    6.0783  -11.1346 N   0  0  0  1  0  0
   11.9574    0.1591   -6.3361 C   0  0  0  1  0  0
   11.7722    0.4918   -7.8211 C   0  0  0  1  0  0
   11.3135   -1.1709   -5.9048 C   0  0  0  1  0  0
   12.7981    1.5157   -8.3303 C   0  0  0  1  0  0
    9.7773   -1.2588   -5.8697 C   0  0  0  1  0  0
   12.7611    2.8692   -7.6054 C   0  0  0  1  0  0
    8.0918    0.2149   -4.5255 C   0  0  0  1  0  0
   13.6544    5.0818   -8.2747 C   0  0  0  1  0  0
    7.3658    1.9714   -2.8463 C   0  0  0  1  0  0
   14.7059    5.3286  -10.4254 C   0  0  0  1  0  0
    6.0497    1.3158   -1.1716 C   0  0  0  1  0  0
   13.0225    4.1312  -11.5369 C   0  0  0  1  0  0
    5.2786    2.0769   -0.2956 C   0  0  0  1  0  0
   11.9191    4.8812  -11.1074 C   0  0  0  1  0  0
    6.7937    0.2435   -0.6703 C   0  0  0  1  0  0
   12.8393    3.1773  -12.5419 C   0  0  0  1  0  0
    5.2789    1.7844    1.0659 C   0  0  0  1  0  0
   10.6537    4.6405  -11.6280 C   0  0  0  1  0  0
    6.7836   -0.0693    0.6787 C   0  0  0  1  0  0
   11.5750    2.9336  -13.0671 C   0  0  0  1  0  0
    6.0327    0.7157    1.5344 C   0  0  0  1  0  0
   10.4902    3.6522  -12.5864 C   0  0  0  1  0  0
   10.0374    0.5058   -4.9940 H   0  0
   14.6544    3.2977   -8.4252 H   0  0
    9.1152    1.6982   -3.6449 H   0  0
    7.0775   -1.2134   -5.4983 H   0  0
    6.0510   -0.2514   -4.5616 H   0  0
   12.2768    5.2786   -6.8019 H   0  0
   12.8194    6.7602   -7.5137 H   0  0
    5.8282    0.8239   -2.9605 H   0  0
    5.5337    2.4493   -2.6230 H   0  0
   14.0117    3.6548  -10.1163 H   0  0
   14.8905    3.7687  -11.5511 H   0  0
    8.8130    3.4601   -2.4131 H   0  0
   15.9384    6.9255  -10.7459 H   0  0
   13.0286    0.0571   -6.1522 H   0  0
   11.6413    0.9963   -5.7165 H   0  0
   11.8859   -0.4211   -8.4078 H   0  0
   10.7625    0.8469   -8.0118 H   0  0
   11.6790   -1.9421   -6.5790 H   0  0
   11.7003   -1.4061   -4.9140 H   0  0
   13.7971    1.0861   -8.2432 H   0  0
   12.6263    1.6736   -9.3953 H   0  0
    9.4319   -2.1699   -5.3980 H   0  0
    9.4140   -1.2557   -6.8867 H   0  0
   12.9966    2.7762   -6.5444 H   0  0
   11.7822    3.3397   -7.7188 H   0  0
    4.7103    2.9217   -0.6572 H   0  0
   12.0068    5.6364  -10.3394 H   0  0
    7.4392   -0.3276   -1.3117 H   0  0
   13.6595    2.5768  -12.9129 H   0  0
    4.7134    2.3892    1.7601 H   0  0
    9.8061    5.2030  -11.2638 H   0  0
    7.3718   -0.8997    1.0498 H   0  0
   11.4425    2.1715  -13.8237 H   0  0
  1 33  1  0
  2 34  1  0
  3 17  1  0
  3 19  2  0
  4 18  1  0
  4 20  1  0
  5 19  1  0
  5 21  1  0
  6 20  2  0
  6 22  1  0
  7 19  1  0
  8 20  1  0
  9 21  1  0
  9 23  1  0
 10 22  1  0
 10 24  1  0
 11 21  2  0
 12 22  2  0
 13 14  1  0
 13 15  1  0
 14 16  1  0
 15 17  1  0
 16 18  1  0
 23 25  2  0
 23 27  1  0
 24 26  2  0
 24 28  1  0
 25 29  1  0
 26 30  1  0
 27 31  2  0
 28 32  2  0
 29 33  2  0
 30 34  2  0
 31 33  1  0
 32 34  1  0
  3 35  1  0
  4 36  1  0
  5 37  1  0
  7 38  1  0
  7 39  1  0
  8 40  1  0
  8 41  1  0
  9 42  1  0
  9 43  1  0
 10 44  1  0
 10 45  1  0
 11 46  1  0
 12 47  1  0
 13 48  1  0
 13 49  1  0
 14 50  1  0
 14 51  1  0
 15 52  1  0
 15 53  1  0
 16 54  1  0
 16 55  1  0
 17 56  1  0
 17 57  1  0
 18 58  1  0
 18 59  1  0
 25 60  1  0
 26 61  1  0
 27 62  1  0
 28 63  1  0
 29 64  1  0
 30 65  1  0
 31 66  1  0
 32 67  1  0
M  CHG  3   3   1   9   1  10   1
M  END
> <Name>
9552079

> <Binding Energy>
-32.6401

> <Ligand Energy>
288.0619

> <Protein Energy>
-7801.1566

> <Complex Energy>
-7545.7349

> <Complex Entropy>
-31.4874

> <Protein Entropy>
-31.4717

> <Ligand Entropy>
-21.1969

> <Entropic Energy>
21.1812

> <AbsoluteEnergy>
139.398

> <ConfNumber>
141

> <Ionization pH>
8.22_PDPP

> <IonizationIndex>
2

> <MOL_NUMBER>
274

> <NumberOfIonizations>
4

> <NumberOfStereoisomers>
1

> <NumberOfTautomers>
10

> <PUBCHEM_ATOM_DEF_STEREO_COUNT>
0

> <PUBCHEM_ATOM_UDEF_STEREO_COUNT>
0

> <PUBCHEM_BOND_DEF_STEREO_COUNT>
2

> <PUBCHEM_BOND_UDEF_STEREO_COUNT>
0

> <PUBCHEM_CACTVS_TAUTO_COUNT>
36

> <PUBCHEM_COMPONENT_COUNT>
1

> <PUBCHEM_COMPOUND_CID>
9552079

> <PUBCHEM_CONFORMER_DIVERSEORDER>
1
72
124
54
87
42
97
24
148
41
5
109
129
28
22
120
70
143
111
52
84
18
76
81
51
108
62
3
21
121
136
31
35
7
104
117
25
10
112
85
139
14
58
19
93
4
101
59
137
46
88
115
103
98
8
13
50
60
67
11
30
146
116
142
55
64
39
113
106
61
48
43
12
79
56
140
83
49
122
75
95
138
9
135
105
94
77
144
125
57
149
92
127
147
141
44
69
133
91
65
118
131
114
73
66
123
100
71
96
37
128
90
102
47
134
82
27
68
78
126
45
74
145
29
23
32
34
38
130
36
86
17
89
53
107
2
110
63
20
119
132
40
15
99
26
33
6
80
16

> <PUBCHEM_CONFORMER_ID>
0091C0CF00000001

> <PUBCHEM_CONFORMER_RMSD>
1.2

> <PUBCHEM_COORDINATE_TYPE>
2
5
10

> <PUBCHEM_EFFECTIVE_ROTOR_COUNT>
13

> <PUBCHEM_FEATURE_SELFOVERLAP>
66.178

> <PUBCHEM_HEAVY_ATOM_COUNT>
34

> <PUBCHEM_ISOTOPIC_ATOM_COUNT>
0

> <PUBCHEM_MMFF94_ENERGY>
107.0893

> <PUBCHEM_MMFF94_PARTIAL_CHARGES>
48
1 -0.18
10 -0.55
11 -0.85
12 -0.85
17 0.25
18 0.25
19 0.71
2 -0.18
20 0.71
21 0.55
22 0.55
23 0.1
24 0.1
25 -0.15
26 -0.15
27 -0.15
28 -0.15
29 -0.15
3 -0.7
30 -0.15
31 -0.15
32 -0.15
33 0.18
34 0.18
4 -0.7
47 0.4
48 0.4
49 0.4
5 -0.66
50 0.4
51 0.4
52 0.4
53 0.15
54 0.15
55 0.15
56 0.15
57 0.15
58 0.15
59 0.15
6 -0.66
60 0.15
61 0.4
62 0.4
63 0.4
64 0.4
7 -0.85
8 -0.85
9 -0.55

> <PUBCHEM_PHARMACOPHORE_FEATURES>
13
1 10 donor
1 11 donor
1 12 donor
1 7 donor
1 8 donor
1 9 donor
4 13 14 15 16 hydrophobe
4 3 5 7 19 cation
4 4 6 8 20 cation
4 5 9 11 21 cation
4 6 10 12 22 cation
6 23 25 27 29 31 33 rings
6 24 26 28 30 32 34 rings

> <PUBCHEM_SHAPE_FINGERPRINT>
11476731 99 18341608153540197497
12013929 29 18337105670608767176
12975358 362 18337689605709652016
14428016 30 18408884070213391374
15705408 1 14620499139130675523
15950262 2 18410853261111012482
16989378 47 14476662119032883019
21647283 7 18334291007205496754
3525247 18 18410856563951821872
44880568 143 18343022164406192151
636783 231 18268998763779226368
636783 253 18412258454873865901

> <PUBCHEM_SHAPE_MULTIPOLES>
653.63
30.18
9.08
1.98
0.72
7.96
0
42.4
0.07
-0.21
0.01
0
-1.38
5.12

> <PUBCHEM_SHAPE_SELFOVERLAP>
1327.674

> <PUBCHEM_SHAPE_VOLUME>
378.2

> <RelativeEnergy>
16.7936

> <StereoisomerIndex>
1

> <TautomerIndex>
8

> <POSE_NUMBER>
1

> <LibDockScore>
104.3536

> <HotSpots>
6.21,0.27,3.35,A,87,1
6.01,0.67,0.55,A,70,29
7.61,3.27,-13.26,A,25,30

> <-In-Situ Starting Energy>
-7595.36082

> <-In-Situ Final Energy>
-99.6488932

> <In-Situ Gradient>
0.000990541325

$$$$
9576240
  SciTegic09142310043D

 42 42  0  0  0  0            999 V2000
   11.9352    2.4614   -8.0206 S   0  0  0  1  0  0
   16.5250    0.8553   -7.3196 S   0  0  0  1  0  0
   13.9315    4.1596   -7.6274 O   0  0  0  1  0  0
   10.9882    4.6084   -6.0036 O   0  0  0  1  0  0
   13.6170    6.8740   -7.0742 O   0  0  0  1  0  0
   12.2326    6.2248   -9.1125 O   0  0  0  1  0  0
   13.1055    4.0776   -3.9994 O   0  0  0  1  0  0
   11.9922   -1.5439   -8.0468 O   0  0  0  1  0  0
   15.5124    0.5712   -8.4638 O   0  0  0  1  0  0
   17.7662    0.9749   -8.0087 O   0  5  0  1  0  0
   16.0621    2.0629   -6.7193 O   0  0  0  1  0  0
   16.4109   -0.2990   -6.4911 O   0  0  0  1  0  0
   14.4289    1.5192   -8.5342 N   0  0  0  1  0  0
   11.5817    5.5928   -6.8417 C   0  0  1  1  0  0
   12.9593    5.8844   -6.2867 C   0  0  1  1  0  0
   11.7807    5.1476   -8.3155 C   0  0  2  1  0  0
   13.7774    4.6081   -6.2895 C   0  0  1  1  0  0
   12.7775    3.9794   -8.4406 C   0  0  2  1  0  0
   13.3970    3.5132   -5.2730 C   0  0  0  1  0  0
   13.2929    1.3538   -7.8229 C   0  0  0  1  0  0
   13.0911    0.2559   -6.7959 C   0  0  0  1  0  0
   11.8010   -0.5255   -7.1004 C   0  0  2  1  0  0
   11.2758   -1.1101   -5.8304 C   0  0  0  1  0  0
   10.0190   -1.0646   -5.3758 C   0  0  0  1  0  0
   11.0486    4.8366   -5.0751 H   0  0
   13.1843    7.7339   -7.0027 H   0  0
   13.0899    6.4792   -8.7671 H   0  0
   13.9017    4.4304   -3.6062 H   0  0
   12.6150   -2.1518   -7.6545 H   0  0
   10.9516    6.4869   -6.8244 H   0  0
   12.9117    6.1699   -5.2468 H   0  0
   10.8379    4.8310   -8.7532 H   0  0
   14.7182    4.9425   -5.8924 H   0  0
   13.1061    3.8797   -9.4758 H   0  0
   12.5298    2.9378   -5.5835 H   0  0
   14.1996    2.7733   -5.1916 H   0  0
   13.0120    0.7413   -5.8239 H   0  0
   13.9694   -0.3827   -6.7369 H   0  0
   11.0235    0.1251   -7.5025 H   0  0
   12.0209   -1.5047   -5.1742 H   0  0
    9.2042   -0.6535   -5.9236 H   0  0
    9.8220   -1.4610   -4.4028 H   0  0
  1 18  1  0
  1 20  1  0
  2  9  1  0
  2 10  1  0
  2 11  2  0
  2 12  2  0
  3 17  1  0
  3 18  1  0
  4 14  1  0
  5 15  1  0
  6 16  1  0
  7 19  1  0
  8 22  1  0
  9 13  1  0
 13 20  2  0
 14 15  1  0
 14 16  1  0
 15 17  1  0
 16 18  1  0
 17 19  1  0
 20 21  1  0
 21 22  1  0
 22 23  1  0
 23 24  2  0
  4 25  1  0
  5 26  1  0
  6 27  1  0
  7 28  1  0
  8 29  1  0
 14 30  1  0
 15 31  1  0
 16 32  1  0
 17 33  1  0
 18 34  1  0
 19 35  1  0
 19 36  1  0
 21 37  1  0
 21 38  1  0
 22 39  1  0
 23 40  1  0
 24 41  1  0
 24 42  1  0
M  CHG  1  10  -1
M  END
> <Name>
9576240

> <Binding Energy>
-67.1605

> <Ligand Energy>
72.5819

> <Protein Energy>
-7801.1566

> <Complex Energy>
-7795.7352

> <Complex Entropy>
-31.4846

> <Protein Entropy>
-31.4717

> <Ligand Entropy>
-19.85

> <Entropic Energy>
19.8371

> <AbsoluteEnergy>
34.5883

> <ConfNumber>
82

> <Ionization pH>
7.5

> <IonizationIndex>
1

> <MOL_NUMBER>
295

> <NumberOfIonizations>
1

> <NumberOfStereoisomers>
1

> <NumberOfTautomers>
1

> <PUBCHEM_ATOM_DEF_STEREO_COUNT>
5

> <PUBCHEM_ATOM_UDEF_STEREO_COUNT>
1

> <PUBCHEM_BOND_DEF_STEREO_COUNT>
1

> <PUBCHEM_BOND_UDEF_STEREO_COUNT>
0

> <PUBCHEM_CACTVS_TAUTO_COUNT>
1

> <PUBCHEM_COMPONENT_COUNT>
1

> <PUBCHEM_COMPOUND_CID>
9576240

> <PUBCHEM_CONFORMER_DIVERSEORDER>
1
20
19
6
46
48
51
37
52
29
49
53
54
9
10
7
8
5
18
25
30
33
2
4
57
56
12
11
26
21
36
24
27
16
34
39
43
47
40
28
45
31
15
58
38
3
42
55
41
17
14
44
23
50
22
13
32
35

> <PUBCHEM_CONFORMER_ID>
00921F3000000001

> <PUBCHEM_CONFORMER_RMSD>
1

> <PUBCHEM_COORDINATE_TYPE>
2
5
10

> <PUBCHEM_EFFECTIVE_ROTOR_COUNT>
9.2

> <PUBCHEM_FEATURE_SELFOVERLAP>
91.433

> <PUBCHEM_HEAVY_ATOM_COUNT>
24

> <PUBCHEM_ISOTOPIC_ATOM_COUNT>
0

> <PUBCHEM_MMFF94_ENERGY>
46.2325

> <PUBCHEM_MMFF94_PARTIAL_CHARGES>
33
1 -0.37
10 -0.68
11 -0.65
12 -0.65
13 -0.51
14 0.28
15 0.28
16 0.28
17 0.28
18 0.51
19 0.28
2 1.67
20 0.53
21 0.06
22 0.42
23 -0.29
24 -0.3
3 -0.56
32 0.4
33 0.4
34 0.4
37 0.4
39 0.15
4 -0.68
40 0.4
41 0.15
42 0.15
43 0.5
5 -0.68
6 -0.68
7 -0.68
8 -0.68
9 -0.12

> <PUBCHEM_PHARMACOPHORE_FEATURES>
18
1 10 acceptor
1 11 acceptor
1 12 acceptor
1 13 acceptor
1 24 hydrophobe
1 3 acceptor
1 4 acceptor
1 4 donor
1 5 acceptor
1 5 donor
1 6 acceptor
1 6 donor
1 7 acceptor
1 7 donor
1 8 acceptor
1 8 donor
4 2 10 11 12 anion
6 3 14 15 16 17 18 rings

> <PUBCHEM_SHAPE_FINGERPRINT>
11582403 64 16051481507804315346
11640471 11 18189347783298786408
12156800 1 15871880784385456389
12553582 1 18197503024530696635
12788726 201 18339645645833240975
13583140 156 17346303883327775522
14004458 79 18272930557520085963
14294032 229 18270126704412499137
14464042 87 18261387884319883319
15420108 30 17398084081476999401
16752209 62 18341607139943454019
1813 80 17771912890109564323
192875 21 18187925148443857190
20600515 1 17629750430226219427
21285901 2 17489033768240994247
21524375 3 18120378661899812889
22620623 9 17917989490949035115
23419403 2 17616201113597134692
23557571 272 18060698398893670867
23598288 3 18335432270120588907
23598291 2 18186799141242233034
469060 322 16557885953289124981
57100710 210 18060133271355225502
6287921 2 17548139931368423457
633830 44 17604736425004050078
6438718 38 18337406970996247305
7164475 11 18411693288131465227
7471813 234 18265327494252933948
7615 1 18186795877156382314

> <PUBCHEM_SHAPE_MULTIPOLES>
437.93
8.85
3.51
2.32
3.31
2.01
-0.64
-1.57
-1.85
-5.81
0.3
0.65
0.28
-3.32

> <PUBCHEM_SHAPE_SELFOVERLAP>
847.777

> <PUBCHEM_SHAPE_VOLUME>
265.4

> <RelativeEnergy>
11.3205

> <StereoisomerIndex>
1

> <TautomerIndex>
1

> <POSE_NUMBER>
1

> <LibDockScore>
103.4985

> <HotSpots>
14.01,6.27,-5.46,P,57,7
16.81,-2.53,-6.66,P,47,10
9.41,-1.33,-5.66,A,37,24

> <-In-Situ Starting Energy>
-17433.8925

> <-In-Situ Final Energy>
-21.4199558

> <In-Situ Gradient>
0.0007665282187

$$$$
101288299
  SciTegic09142310043D

 74 78  0  0  0  0            999 V2000
   14.1515    5.5862   -7.5758 O   0  0  0  1  0  0
   12.0954    2.5893  -11.7683 O   0  0  0  1  0  0
   14.8703    3.5840   -8.3864 O   0  0  0  1  0  0
   11.5529    2.7530  -14.0096 O   0  0  0  1  0  0
   17.3418    2.1287  -11.6893 O   0  0  0  1  0  0
   12.2903    4.8076   -4.0739 O   0  0  0  1  0  0
   11.0428   -0.0517  -13.8237 O   0  0  0  1  0  0
    9.5259    2.1469  -11.2271 O   0  0  0  1  0  0
    8.9902    1.6217  -14.7411 O   0  0  0  1  0  0
   11.4886    5.3960  -13.2257 O   0  0  0  1  0  0
   18.6873    0.8964  -10.3871 O   0  0  0  1  0  0
   12.8273    4.5372   -9.1693 C   0  0  2  1  0  0
   13.3113    4.7246  -10.6327 C   0  0  2  1  0  0
   12.0325    3.2132   -8.9621 C   0  0  1  1  0  0
   14.0656    3.5030  -11.1304 C   0  0  0  1  0  0
   12.0713    5.7536   -8.6100 C   0  0  0  1  0  0
   12.7400    2.0028   -9.5768 C   0  0  0  1  0  0
   13.2116    2.2823  -10.9906 C   0  0  1  1  0  0
   14.0886    6.0235  -10.9552 C   0  0  0  1  0  0
   14.0712    4.5096   -8.3313 C   0  0  0  1  0  0
   12.9219    6.2585   -7.4400 C   0  0  1  1  0  0
   15.3116    3.5175  -11.6496 C   0  0  0  1  0  0
   15.5977    5.9035  -10.7676 C   0  0  0  1  0  0
   11.7185    2.8569   -7.4982 C   0  0  0  1  0  0
   16.1737    4.7466  -11.5861 C   0  0  0  1  0  0
   12.3734    5.7887   -6.1130 C   0  0  0  1  0  0
   16.0454    2.3350  -12.2507 C   0  0  0  1  0  0
   11.9935    1.9014  -12.9709 C   0  0  2  1  0  0
   10.9861    0.7913  -12.7035 C   0  0  1  1  0  0
    9.5862    1.4000  -12.4287 C   0  0  2  1  0  0
   11.0643    5.8844   -5.6489 C   0  0  0  1  0  0
   13.1040    5.1450   -5.1071 C   0  0  0  1  0  0
   10.2915    3.3830  -13.8670 C   0  0  1  1  0  0
    9.1815    2.3701  -13.5495 C   0  0  1  1  0  0
   11.0375    5.2026   -4.4306 C   0  0  0  1  0  0
   10.3758    4.5768  -12.9087 C   0  0  0  1  0  0
   17.5636    1.2693  -10.6942 C   0  0  0  1  0  0
   16.3466    0.7476   -9.9212 C   0  0  0  1  0  0
   10.9359    0.5216  -14.5765 H   0  0
    9.6433    1.5810  -10.4687 H   0  0
    8.2469    1.9427  -15.2392 H   0  0
   12.1723    4.8427  -13.6069 H   0  0
   12.3841    4.8224  -11.1746 H   0  0
   11.0836    3.3483   -9.4789 H   0  0
   11.9421    6.5358   -9.3549 H   0  0
   11.0633    5.4891   -8.3089 H   0  0
   13.5845    1.6974   -8.9609 H   0  0
   12.0693    1.1443   -9.5830 H   0  0
   13.7018    1.3756  -11.3323 H   0  0
   13.7069    6.8684  -10.3918 H   0  0
   13.9303    6.2730  -12.0021 H   0  0
   13.0896    7.3344   -7.4631 H   0  0
   16.0916    6.8336  -11.0506 H   0  0
   15.8322    5.7624   -9.7168 H   0  0
   11.0737    3.5885   -7.0302 H   0  0
   12.6221    2.7655   -6.8949 H   0  0
   11.2056    1.8977   -7.4397 H   0  0
   17.1206    4.4715  -11.1530 H   0  0
   16.3858    5.0729  -12.6017 H   0  0
   16.1919    2.5264  -13.3137 H   0  0
   15.4772    1.4111  -12.2195 H   0  0
   12.9580    1.4881  -13.2747 H   0  0
   11.3111    0.1944  -11.8510 H   0  0
    8.8389    0.6098  -12.3614 H   0  0
   10.2477    6.3815   -6.1481 H   0  0
   14.1645    4.9420   -5.1505 H   0  0
   10.0745    3.8188  -14.8383 H   0  0
    8.2693    2.8974  -13.2345 H   0  0
   10.1528    5.0113   -3.8485 H   0  0
    9.4727    5.1785  -12.9961 H   0  0
   10.4266    4.2795  -11.8618 H   0  0
   15.7789    0.0377  -10.5209 H   0  0
   15.7158    1.5796   -9.6190 H   0  0
   16.6882    0.2391   -9.0198 H   0  0
  1 20  1  0
  1 21  1  0
  2 18  1  0
  2 28  1  0
  3 20  2  0
  4 28  1  0
  4 33  1  0
  5 27  1  0
  5 37  1  0
  6 32  1  0
  6 35  1  0
  7 29  1  0
  8 30  1  0
  9 34  1  0
 10 36  1  0
 11 37  2  0
 12 13  1  0
 12 14  1  0
 12 16  1  0
 12 20  1  0
 13 15  1  0
 13 19  1  0
 14 17  1  0
 14 24  1  0
 15 18  1  0
 15 22  2  0
 16 21  1  0
 17 18  1  0
 19 23  1  0
 21 26  1  0
 22 25  1  0
 22 27  1  0
 23 25  1  0
 26 31  1  0
 26 32  2  0
 28 29  1  0
 29 30  1  0
 30 34  1  0
 31 35  2  0
 33 34  1  0
 33 36  1  0
 37 38  1  0
  7 39  1  0
  8 40  1  0
  9 41  1  0
 10 42  1  0
 13 43  1  0
 14 44  1  0
 16 45  1  0
 16 46  1  0
 17 47  1  0
 17 48  1  0
 18 49  1  0
 19 50  1  0
 19 51  1  0
 21 52  1  0
 23 53  1  0
 23 54  1  0
 24 55  1  0
 24 56  1  0
 24 57  1  0
 25 58  1  0
 25 59  1  0
 27 60  1  0
 27 61  1  0
 28 62  1  0
 29 63  1  0
 30 64  1  0
 31 65  1  0
 32 66  1  0
 33 67  1  0
 34 68  1  0
 35 69  1  0
 36 70  1  0
 36 71  1  0
 38 72  1  0
 38 73  1  0
 38 74  1  0
M  END
> <Name>
101288299

> <Binding Energy>
-39.2252

> <Ligand Energy>
80.4254

> <Protein Energy>
-7801.1566

> <Complex Energy>
-7759.9564

> <Complex Entropy>
-31.4905

> <Protein Entropy>
-31.4717

> <Ligand Entropy>
-20.7756

> <Entropic Energy>
20.7568

> <AbsoluteEnergy>
57.5006

> <ConfNumber>
195

> <IonizationIndex>
1

> <MOL_NUMBER>
3

> <NumberOfIonizations>
1

> <NumberOfStereoisomers>
1

> <NumberOfTautomers>
1

> <PUBCHEM_ATOM_DEF_STEREO_COUNT>
10

> <PUBCHEM_ATOM_UDEF_STEREO_COUNT>
0

> <PUBCHEM_BOND_DEF_STEREO_COUNT>
0

> <PUBCHEM_BOND_UDEF_STEREO_COUNT>
0

> <PUBCHEM_CACTVS_TAUTO_COUNT>
2

> <PUBCHEM_COMPONENT_COUNT>
1

> <PUBCHEM_COMPOUND_CID>
101288299

> <PUBCHEM_CONFORMER_DIVERSEORDER>
2
20
11
17
10
13
15
19
4
22
23
5
6
21
28
1
12
27
16
26
7
14
8
24
3
25
9
18

> <PUBCHEM_CONFORMER_ID>
0609896B00000002

> <PUBCHEM_CONFORMER_RMSD>
1

> <PUBCHEM_COORDINATE_TYPE>
2
5
10

> <PUBCHEM_EFFECTIVE_ROTOR_COUNT>
10

> <PUBCHEM_FEATURE_SELFOVERLAP>
91.441

> <PUBCHEM_HEAVY_ATOM_COUNT>
38

> <PUBCHEM_ISOTOPIC_ATOM_COUNT>
0

> <PUBCHEM_MMFF94_ENERGY>
82.0702

> <PUBCHEM_MMFF94_PARTIAL_CHARGES>
39
1 -0.43
10 -0.68
11 -0.57
12 0.06
13 0.14
15 -0.28
18 0.42
2 -0.56
20 0.66
21 0.46
22 -0.28
25 0.14
26 -0.18
27 0.42
28 0.56
29 0.28
3 -0.57
30 0.28
31 -0.15
32 -0.01
33 0.28
34 0.28
35 -0.01
36 0.28
37 0.66
38 0.06
4 -0.56
5 -0.43
6 -0.28
61 0.15
62 0.15
65 0.15
68 0.4
69 0.4
7 -0.68
70 0.4
71 0.4
8 -0.68
9 -0.68

> <PUBCHEM_PHARMACOPHORE_FEATURES>
18
1 10 acceptor
1 10 donor
1 11 acceptor
1 2 acceptor
1 3 acceptor
1 4 acceptor
1 6 acceptor
1 7 acceptor
1 7 donor
1 8 acceptor
1 8 donor
1 9 acceptor
1 9 donor
5 1 12 16 20 21 rings
5 6 26 31 32 35 rings
6 12 13 14 15 17 18 rings
6 13 15 19 22 23 25 rings
6 4 28 29 30 33 34 rings

> <PUBCHEM_SHAPE_FINGERPRINT>
10554248 39 18057594366807002533
10721379 63 18058182634685317566
10816530 23 18050290559802446160
10906281 52 17677346024796393045
11399939 17 17703496698205118743
11607047 141 18054246345257339251
11961588 58 17060336340676180293
12422481 6 17458617922189040425
12788726 201 17544754994649555742
13782708 43 12685105800140814305
14068700 675 17627512631710669467
14739800 52 17846492608917692049
15064986 96 18408044001192585370
15324884 4 17462044000284463611
15392192 104 18335147518442248051
15439362 3 18411423899482758990
17980427 23 17605276374901017509
21033648 29 18199736115820418112
21716022 299 17345198792437502250
22182313 1 17386277680790599719
23559900 14 18339089193864950487
3411729 13 18333169457868110753
392239 28 16515673489953600065
4017518 198 18271253807221466742
4093350 32 18410013204193600490
4340502 62 17749396958020455569
5081480 168 18124874556166138646

> <PUBCHEM_SHAPE_MULTIPOLES>
717.46
14.48
4.84
2.58
21.29
7.11
0.6
-14.51
2.7
-9.41
-2.91
-1.4
0.02
-0.29

> <PUBCHEM_SHAPE_SELFOVERLAP>
1532.27

> <PUBCHEM_SHAPE_VOLUME>
394.7

> <RelativeEnergy>
17.6339

> <StereoisomerIndex>
1

> <TautomerIndex>
1

> <POSE_NUMBER>
2

> <LibDockScore>
108.6203

> <HotSpots>
13.41,5.07,-3.25,A,44,32
9.21,3.67,-12.86,A,26,33
9.01,2.67,-14.05,A,21,34

> <-In-Situ Starting Energy>
-4444.04951

> <-In-Situ Final Energy>
-40.3543279

> <In-Situ Gradient>
0.0008435602849

$$$$
101337705
  SciTegic09142310043D

 56 56  0  0  0  0            999 V2000
   13.1458    2.7542  -14.9531 O   0  0  0  1  0  0
   11.3307    4.5576  -14.4066 O   0  0  0  1  0  0
   14.9663    2.7027  -13.4075 O   0  5  0  1  0  0
   12.1482    5.7899  -11.9741 O   0  0  0  1  0  0
   10.5383    2.6714  -11.5009 O   0  0  0  1  0  0
   13.5416    4.0751   -9.4968 O   0  0  0  1  0  0
   12.6518    2.6343  -13.6412 C   0  0  2  1  0  0
   11.6860    3.8076  -13.2536 C   0  0  1  1  0  0
   13.8970    3.0028  -12.8812 C   0  0  0  1  0  0
   12.2538    1.1737  -13.2840 C   0  0  0  1  0  0
   12.4486    4.6635  -12.2535 C   0  0  0  1  0  0
   13.5760    3.8918  -11.7982 C   0  0  0  1  0  0
   10.4539    3.3306  -12.4909 C   0  0  0  1  0  0
   14.2011    3.9571  -10.4878 C   0  0  0  1  0  0
   15.7182    3.9652  -10.4306 C   0  0  1  1  0  0
   13.2361    0.1141  -13.7296 C   0  0  0  1  0  0
    9.1126    3.7551  -13.0197 C   0  0  0  1  0  0
   16.0851    5.4362  -10.1979 C   0  0  0  1  0  0
   16.1995    2.9729   -9.3631 C   0  0  0  1  0  0
   12.9545   -1.0451  -14.3541 C   0  0  0  1  0  0
    8.8514    2.9252  -14.2428 C   0  0  0  1  0  0
   15.9132    6.2829  -11.4333 C   0  0  0  1  0  0
   14.0378   -1.9834  -14.8250 C   0  0  0  1  0  0
   11.5866   -1.6793  -14.3783 C   0  0  0  1  0  0
    7.7977    2.1317  -14.4316 C   0  0  0  1  0  0
    6.7209    2.1287  -13.4064 C   0  0  0  1  0  0
    7.4897    1.3018  -15.6592 C   0  0  0  1  0  0
   14.0995    2.5807  -14.7825 H   0  0
   12.1240    4.6223  -14.9367 H   0  0
   12.1350    1.0728  -12.2055 H   0  0
   11.2804    0.9652  -13.7261 H   0  0
   16.1218    3.6410  -11.3923 H   0  0
   14.2693    0.3950  -13.6116 H   0  0
    9.1338    4.8161  -13.2613 H   0  0
    8.3889    3.5944  -12.2273 H   0  0
   17.1348    5.5226  -10.0067 H   0  0
   15.5441    5.8737   -9.3564 H   0  0
   15.9657    1.9507   -9.6632 H   0  0
   15.7210    3.1374   -8.3995 H   0  0
   17.2785    3.0272   -9.2307 H   0  0
    9.6007    2.9938  -14.9944 H   0  0
   14.8712    6.3648  -11.7418 H   0  0
   16.4997    5.7943  -12.2114 H   0  0
   16.3109    7.2863  -11.2946 H   0  0
   15.0107   -1.6875  -14.4315 H   0  0
   14.0955   -1.9750  -15.9138 H   0  0
   13.8474   -3.0079  -14.5041 H   0  0
   11.1336   -1.5749  -15.3584 H   0  0
   10.9261   -1.2291  -13.6389 H   0  0
   11.6465   -2.7443  -14.1615 H   0  0
    6.5391    3.1288  -13.0178 H   0  0
    6.9946    1.4899  -12.5662 H   0  0
    5.8170    1.7314  -13.8546 H   0  0
    8.2704    0.5987  -15.7427 H   0  0
    7.5676    1.7307  -16.6302 H   0  0
    6.5084    0.8274  -15.6317 H   0  0
  1  7  1  0
  2  8  1  0
  3  9  1  0
  4 11  2  0
  5 13  2  0
  6 14  2  0
  7  8  1  0
  7  9  1  0
  7 10  1  0
  8 11  1  0
  8 13  1  0
  9 12  2  0
 10 16  1  0
 11 12  1  0
 12 14  1  0
 13 17  1  0
 14 15  1  0
 15 18  1  0
 15 19  1  0
 16 20  2  0
 17 21  1  0
 18 22  1  0
 20 23  1  0
 20 24  1  0
 21 25  2  0
 25 26  1  0
 25 27  1  0
  1 28  1  0
  2 29  1  0
 10 30  1  0
 10 31  1  0
 15 32  1  0
 16 33  1  0
 17 34  1  0
 17 35  1  0
 18 36  1  0
 18 37  1  0
 19 38  1  0
 19 39  1  0
 19 40  1  0
 21 41  1  0
 22 42  1  0
 22 43  1  0
 22 44  1  0
 23 45  1  0
 23 46  1  0
 23 47  1  0
 24 48  1  0
 24 49  1  0
 24 50  1  0
 26 51  1  0
 26 52  1  0
 26 53  1  0
 27 54  1  0
 27 55  1  0
 27 56  1  0
M  CHG  1   3  -1
M  END
> <Name>
101337705

> <Binding Energy>
-16.9539

> <Ligand Energy>
97.2428

> <Protein Energy>
-7801.1566

> <Complex Energy>
-7720.8678

> <Complex Entropy>
-31.4855

> <Protein Entropy>
-31.4717

> <Ligand Entropy>
-19.9655

> <Entropic Energy>
19.9517

> <AbsoluteEnergy>
59.9201

> <ConfNumber>
123

> <Ionization pH>
7.5

> <IonizationIndex>
1

> <MOL_NUMBER>
4

> <NumberOfIonizations>
1

> <NumberOfStereoisomers>
1

> <NumberOfTautomers>
1

> <PUBCHEM_ATOM_DEF_STEREO_COUNT>
2

> <PUBCHEM_ATOM_UDEF_STEREO_COUNT>
1

> <PUBCHEM_BOND_DEF_STEREO_COUNT>
0

> <PUBCHEM_BOND_UDEF_STEREO_COUNT>
0

> <PUBCHEM_CACTVS_TAUTO_COUNT>
21

> <PUBCHEM_COMPONENT_COUNT>
1

> <PUBCHEM_COMPOUND_CID>
101337705

> <PUBCHEM_CONFORMER_DIVERSEORDER>
1
45
12
15
30
68
76
55
16
43
35
63
21
72
49
42
27
58
50
60
17
31
46
44
40
22
73
33
47
56
14
57
51
61
4
29
20
28
5
34
41
19
48
39
53
13
64
71
26
59
70
32
74
6
65
69
38
52
11
66
54
37
8
24
7
36
10
9
67
62
75
3
2
23
18
25

> <PUBCHEM_CONFORMER_ID>
060A4A6900000001

> <PUBCHEM_CONFORMER_RMSD>
1.2

> <PUBCHEM_COORDINATE_TYPE>
2
5
10

> <PUBCHEM_EFFECTIVE_ROTOR_COUNT>
8.4

> <PUBCHEM_FEATURE_SELFOVERLAP>
65.998

> <PUBCHEM_HEAVY_ATOM_COUNT>
27

> <PUBCHEM_ISOTOPIC_ATOM_COUNT>
0

> <PUBCHEM_MMFF94_ENERGY>
48.0257

> <PUBCHEM_MMFF94_PARTIAL_CHARGES>
29
1 -0.68
10 0.14
11 0.49
12 0.03
13 0.45
14 0.49
15 0.06
16 -0.29
17 0.2
2 -0.68
20 -0.28
21 -0.29
23 0.14
24 0.14
25 -0.28
26 0.14
27 0.14
3 -0.53
31 0.4
32 0.4
33 0.15
36 0.45
4 -0.57
42 0.15
5 -0.57
6 -0.57
7 0.42
8 0.4
9 -0.06

> <PUBCHEM_PHARMACOPHORE_FEATURES>
13
1 1 acceptor
1 1 donor
1 19 hydrophobe
1 2 acceptor
1 2 donor
1 22 hydrophobe
1 3 donor
1 4 acceptor
1 5 acceptor
1 6 acceptor
3 20 23 24 hydrophobe
3 25 26 27 hydrophobe
5 7 8 9 11 12 rings

> <PUBCHEM_SHAPE_FINGERPRINT>
105312 117 18338806624019148412
10577160 183 18042111104204790906
11045515 52 17905322188672644943
11578080 2 17415842641838353328
12788726 201 18190449640121617850
12969540 114 18335414630442231052
13383661 66 16199580441340514622
13690498 29 18198357345502971390
13911987 19 18337390431273084181
14251757 5 18339069510161630879
14508225 48 17981321502010447415
14675019 173 17976272545212390435
14713325 29 18334590039649791227
14790565 3 18196944270676226432
15131766 46 15215303138804269662
15463212 79 18335411357434194342
15775530 1 17629460146117974168
16087824 20 18411143567811472035
17492 54 18042943451333128061
17539 30 18270113646836154230
17980427 23 13263551097395157077
20101258 96 18047487886918841426
20775438 99 17480818285840339053
21033648 29 18341610378802736040
21344244 181 17917149395040399127
22182313 1 18194708997637687234
22907989 373 18338513165624804397
23419403 2 16772376538367942810
23559900 14 18201164265855770802
255183 451 17478331297570380079
376196 1 17753607940861661785
38695281 34 18195246607225637036
394222 165 17898851240825845424
4015057 19 17418372498299167024
437795 70 17771035441228765791
4409770 3 18411703192310115079
46194498 28 16682563107463789503
484985 159 15482677900299766886
5080951 261 17917422168576956158
53917941 68 18262224599620065180
59755656 520 17987255359890515386
81228 2 18052525858103841299

> <PUBCHEM_SHAPE_MULTIPOLES>
520.43
9.46
5.05
1.79
17.97
3.96
0.31
-5.56
4.93
-8.21
1.38
-0.85
0.12
-0.14

> <PUBCHEM_SHAPE_SELFOVERLAP>
1068.098

> <PUBCHEM_SHAPE_VOLUME>
299.8

> <RelativeEnergy>
11.1448

> <StereoisomerIndex>
1

> <TautomerIndex>
1

> <POSE_NUMBER>
5

> <LibDockScore>
100.7948

> <HotSpots>
9.21,3.67,-12.86,A,26,17
16.61,6.47,-11.46,A,30,18
7.21,2.27,-14.26,A,20,26

> <-In-Situ Starting Energy>
-614.643233

> <-In-Situ Final Energy>
-46.0422699

> <In-Situ Gradient>
0.0009828972106

$$$$
101491237
  SciTegic09142310043D

 58 60  0  0  0  0            999 V2000
   13.5738    3.3884  -12.5728 O   0  0  0  1  0  0
   12.3197   -0.6341  -11.2526 O   0  0  0  1  0  0
   13.5751    2.7007   -8.1483 O   0  5  0  1  0  0
   14.2491   -1.0077   -9.0017 O   0  0  0  1  0  0
   10.7386    2.2963  -11.4132 C   0  0  2  1  0  0
   12.0555    1.6489  -11.8707 C   0  0  1  1  0  0
   10.0889    2.8865  -12.7078 C   0  0  0  1  0  0
   12.6882    3.3909  -10.2978 C   0  0  2  1  0  0
   11.1320    3.3034  -10.3018 C   0  0  0  1  0  0
   11.8252    1.2031  -13.3106 C   0  0  0  1  0  0
   10.8227    2.1997  -13.8761 C   0  0  0  1  0  0
   12.9805    2.8390  -11.6931 C   0  0  0  1  0  0
   12.5027    0.5075  -10.9394 C   0  0  0  1  0  0
   13.1706    2.3513   -9.2528 C   0  0  0  1  0  0
    8.5896    2.5636  -12.7847 C   0  0  0  1  0  0
   10.2461    4.4137  -12.8589 C   0  0  0  1  0  0
   13.3285    4.7921  -10.0587 C   0  0  0  1  0  0
   13.0760    0.9042   -9.6197 C   0  0  0  1  0  0
   12.3628    5.9087   -9.7579 C   0  0  0  1  0  0
   13.4941   -0.1411   -8.6657 C   0  0  0  1  0  0
   12.8119   -0.1493   -7.2873 C   0  0  0  1  0  0
   12.2711    6.6310   -8.6266 C   0  0  0  1  0  0
   11.5429   -1.0295   -7.2771 C   0  0  0  1  0  0
   12.9805    6.2990   -7.3373 C   0  0  0  1  0  0
   11.2186    7.6972   -8.4624 C   0  0  0  1  0  0
   10.8228   -0.9099   -5.9328 C   0  0  0  1  0  0
   10.5873   -0.7202   -8.4324 C   0  0  0  1  0  0
   10.0772    1.5312  -11.0005 H   0  0
   10.7551    2.9626   -9.3349 H   0  0
   10.6384    4.2576  -10.4366 H   0  0
   11.3747    0.2095  -13.3362 H   0  0
   12.7473    1.1565  -13.8917 H   0  0
   11.3693    2.9374  -14.4651 H   0  0
   10.1238    1.6897  -14.5373 H   0  0
    8.0358    3.1808  -12.0849 H   0  0
    8.3866    1.5165  -12.5593 H   0  0
    8.1885    2.7779  -13.7760 H   0  0
   11.2824    4.7136  -12.7206 H   0  0
    9.6280    4.9630  -12.1489 H   0  0
    9.9444    4.7435  -13.8527 H   0  0
   13.9059    5.0995  -10.9304 H   0  0
   14.0822    4.7356   -9.2734 H   0  0
   11.7239    6.1547  -10.5826 H   0  0
   12.5603    0.8752   -7.0133 H   0  0
   13.5347   -0.4921   -6.5491 H   0  0
   11.8309   -2.0703   -7.3984 H   0  0
   13.4028    5.2931   -7.3535 H   0  0
   12.2959    6.3412   -6.4913 H   0  0
   13.7841    7.0120   -7.1583 H   0  0
   10.4617    7.6311   -9.2450 H   0  0
   11.6778    8.6839   -8.5197 H   0  0
   10.7189    7.6012   -7.4994 H   0  0
   10.4899    0.1128   -5.7630 H   0  0
   11.4907   -1.1920   -5.1191 H   0  0
    9.9509   -1.5621   -5.8854 H   0  0
   10.9782   -1.1000   -9.3714 H   0  0
   10.4285    0.3515   -8.5424 H   0  0
    9.6304   -1.2160   -8.2873 H   0  0
  1 12  2  0
  2 13  2  0
  3 14  1  0
  4 20  2  0
  5  6  1  0
  5  7  1  0
  5  9  1  0
  6 10  1  0
  6 12  1  0
  6 13  1  0
  7 11  1  0
  7 15  1  0
  7 16  1  0
  8  9  1  0
  8 12  1  0
  8 14  1  0
  8 17  1  0
 10 11  1  0
 13 18  1  0
 14 18  2  0
 17 19  1  0
 18 20  1  0
 19 22  2  0
 20 21  1  0
 21 23  1  0
 22 24  1  0
 22 25  1  0
 23 26  1  0
 23 27  1  0
  5 28  1  0
  9 29  1  0
  9 30  1  0
 10 31  1  0
 10 32  1  0
 11 33  1  0
 11 34  1  0
 15 35  1  0
 15 36  1  0
 15 37  1  0
 16 38  1  0
 16 39  1  0
 16 40  1  0
 17 41  1  0
 17 42  1  0
 19 43  1  0
 21 44  1  0
 21 45  1  0
 23 46  1  0
 24 47  1  0
 24 48  1  0
 24 49  1  0
 25 50  1  0
 25 51  1  0
 25 52  1  0
 26 53  1  0
 26 54  1  0
 26 55  1  0
 27 56  1  0
 27 57  1  0
 27 58  1  0
M  CHG  1   3  -1
M  END
> <Name>
101491237

> <Binding Energy>
-28.2034

> <Ligand Energy>
109.2196

> <Protein Energy>
-7801.1566

> <Complex Energy>
-7720.1405

> <Complex Entropy>
-31.4843

> <Protein Entropy>
-31.4717

> <Ligand Entropy>
-19.866

> <Entropic Energy>
19.8534

> <AbsoluteEnergy>
48.388

> <ConfNumber>
85

> <Ionization pH>
7.5

> <IonizationIndex>
1

> <MOL_NUMBER>
6

> <NumberOfIonizations>
1

> <NumberOfStereoisomers>
1

> <NumberOfTautomers>
1

> <PUBCHEM_ATOM_DEF_STEREO_COUNT>
2

> <PUBCHEM_ATOM_UDEF_STEREO_COUNT>
1

> <PUBCHEM_BOND_DEF_STEREO_COUNT>
0

> <PUBCHEM_BOND_UDEF_STEREO_COUNT>
0

> <PUBCHEM_CACTVS_TAUTO_COUNT>
7

> <PUBCHEM_COMPONENT_COUNT>
1

> <PUBCHEM_COMPOUND_CID>
101491237

> <PUBCHEM_CONFORMER_DIVERSEORDER>
1
41
72
47
61
64
27
24
54
71
30
68
69
48
74
80
18
52
67
42
56
70
75
53
4
66
79
32
44
63
59
77
45
65
36
37
8
43
78
49
15
3
58
13
57
12
62
11
40
81
38
5
23
76
73
16
20
51
39
34
31
9
25
35
28
7
29
60
2
33
17
6
21
55
46
10
14
22
26
50
19

> <PUBCHEM_CONFORMER_ID>
060CA22500000001

> <PUBCHEM_CONFORMER_RMSD>
0.8

> <PUBCHEM_COORDINATE_TYPE>
2
5
10

> <PUBCHEM_EFFECTIVE_ROTOR_COUNT>
5.8

> <PUBCHEM_FEATURE_SELFOVERLAP>
45.722

> <PUBCHEM_HEAVY_ATOM_COUNT>
27

> <PUBCHEM_ISOTOPIC_ATOM_COUNT>
0

> <PUBCHEM_MMFF94_ENERGY>
86.9114

> <PUBCHEM_MMFF94_PARTIAL_CHARGES>
19
1 -0.57
12 0.45
13 0.49
14 -0.06
17 0.14
18 0.03
19 -0.29
2 -0.57
20 0.49
21 0.06
22 -0.28
24 0.14
25 0.14
3 -0.53
4 -0.57
43 0.15
44 0.45
6 0.12
8 0.2

> <PUBCHEM_PHARMACOPHORE_FEATURES>
9
1 1 acceptor
1 2 acceptor
1 3 donor
1 4 acceptor
3 22 24 25 hydrophobe
3 23 26 27 hydrophobe
3 7 15 16 hydrophobe
5 5 6 7 10 11 rings
8 5 6 8 9 12 13 14 18 rings

> <PUBCHEM_SHAPE_FINGERPRINT>
10074138 170 17685475569407192336
1100329 8 16250250987840190438
11578080 2 18041558165282184205
12035758 1 18267311932985758001
12160290 23 17977676307236553036
12553582 1 18340218439514452270
12788726 201 18119269288742210234
13004483 165 18337954476263122731
13009979 54 18116160974288239470
13140716 1 18339645525400031472
133893 2 18054776545262195813
14178342 30 17902516978492184622
14844126 61 18121764050719722946
14955137 171 17621935024087078615
15042514 8 18121221982595983833
15475509 35 17535501388804977995
16945 1 17488209044283585391
17980427 23 17632580444596583473
20101258 96 18339641140586406800
20642791 268 17987530353819696091
21304303 282 17325458048507169316
21524375 3 16971956186790744676
22956985 138 17973431393990560834
23366157 5 18119815969454557205
23419403 2 18188198918702783573
23558518 356 17402332568694756007
23559900 14 16011530988974505812
283562 15 17619054037255582037
3091708 16 8778606917624371792
3187 122 18338789010263607624
352729 6 18050297967919405612
394222 165 17626135257231006211
4058900 60 17760383479536295641
469060 322 18058714845721552847
58807428 26 17403458966623126161
59444896 2 12302960525926161615
79837 15 17400930695632965728
81228 2 18049744922329262977
90316 7 18341057306735466187
9981440 41 17479710755413889474

> <PUBCHEM_SHAPE_MULTIPOLES>
532.17
6.95
5.98
1.76
3.65
10.26
0.28
-8.45
3.37
4.55
1.47
-0.66
-0.32
-0.1

> <PUBCHEM_SHAPE_SELFOVERLAP>
1132.736

> <PUBCHEM_SHAPE_VOLUME>
300.5

> <RelativeEnergy>
6.35636

> <StereoisomerIndex>
1

> <TautomerIndex>
1

> <POSE_NUMBER>
3

> <LibDockScore>
100.2806

> <HotSpots>
9.21,3.67,-12.86,A,26,15
10.81,8.27,-8.46,A,35,24
9.41,-1.33,-5.66,A,37,26

> <-In-Situ Starting Energy>
-820.215295

> <-In-Situ Final Energy>
-25.2076592

> <In-Situ Gradient>
0.0008382173119

$$$$
102242110
  SciTegic09142310043D

 56 59  0  0  0  0            999 V2000
   11.5728    0.9282  -13.9588 O   0  0  0  1  0  0
   12.5528    4.1999  -10.7225 O   0  0  0  1  0  0
   17.0778    0.7021  -13.9450 O   0  0  0  1  0  0
    9.4373    1.6625  -14.2957 O   0  0  0  1  0  0
   13.7007   -3.0459  -13.9779 O   0  0  0  1  0  0
   12.7275    6.1755  -11.7799 O   0  0  0  1  0  0
   11.8078   -4.1984  -14.1857 O   0  0  0  1  0  0
   15.0171   -5.5029  -13.7269 O   0  5  0  1  0  0
   13.1854   -6.5916  -14.0299 O   0  0  0  1  0  0
   13.1342    3.3708   -4.6778 O   0  0  0  1  0  0
   12.7474    1.5028  -13.3889 C   0  0  1  1  0  0
   12.2323    2.3866  -12.2423 C   0  0  1  1  0  0
   13.6991    0.4447  -12.8513 C   0  0  2  1  0  0
   13.2162    3.4558  -11.7445 C   0  0  2  1  0  0
   15.0618    1.0638  -12.6805 C   0  0  0  1  0  0
   14.5050    2.9385  -11.0575 C   0  0  0  1  0  0
   15.4351    1.9225  -11.7055 C   0  0  0  1  0  0
   13.9712   -0.7240  -13.7756 C   0  0  0  1  0  0
   10.9296    2.8152  -12.8574 C   0  0  0  1  0  0
   15.9768    0.3800  -13.6241 C   0  0  0  1  0  0
   10.5416    1.7412  -13.7763 C   0  0  0  1  0  0
   15.2463   -0.7499  -14.1857 C   0  0  0  1  0  0
   12.9615   -1.8282  -13.9219 C   0  0  0  1  0  0
   16.8722    2.2471  -11.3429 C   0  0  0  1  0  0
   10.2859    3.9962  -12.9150 C   0  0  0  1  0  0
   12.4647    5.5179  -10.7787 C   0  0  0  1  0  0
   11.9353    6.1740   -9.4865 C   0  0  0  1  0  0
   13.0269   -4.1899  -14.0410 C   0  0  0  1  0  0
   12.2750    5.4124   -8.2228 C   0  0  0  1  0  0
   13.0385    6.0154   -7.2249 C   0  0  0  1  0  0
   11.7749    4.1314   -7.9889 C   0  0  0  1  0  0
   13.7986   -5.5224  -13.9241 C   0  0  0  1  0  0
   13.3188    5.3434   -6.0412 C   0  0  0  1  0  0
   12.0683    3.4516   -6.8142 C   0  0  0  1  0  0
   12.8493    4.0534   -5.8419 C   0  0  0  1  0  0
   14.0050    3.5938   -4.3779 H   0  0
   13.2310    2.0926  -14.1724 H   0  0
   11.9798    1.7639  -11.3830 H   0  0
   13.3247    0.0725  -11.8971 H   0  0
   13.4926    4.0981  -12.5846 H   0  0
   15.0639    3.8464  -10.8307 H   0  0
   14.2246    2.5404  -10.0820 H   0  0
   15.6693   -1.5030  -14.8241 H   0  0
   12.3531   -1.6939  -14.8185 H   0  0
   12.3096   -1.8536  -13.0491 H   0  0
   17.5956    1.8405  -12.0437 H   0  0
   17.1110    1.8370  -10.3616 H   0  0
   17.0532    3.3217  -11.3114 H   0  0
   10.5926    4.8567  -12.3624 H   0  0
    9.4124    4.1261  -13.5279 H   0  0
   10.8541    6.2740   -9.5720 H   0  0
   12.3486    7.1799   -9.4224 H   0  0
   13.4086    7.0248   -7.3515 H   0  0
   11.1539    3.6529   -8.7337 H   0  0
   13.8951    5.8443   -5.2787 H   0  0
   11.6917    2.4521   -6.6551 H   0  0
  1 11  1  0
  1 21  1  0
  2 14  1  0
  2 26  1  0
  3 20  2  0
  4 21  2  0
  5 23  1  0
  5 28  1  0
  6 26  2  0
  7 28  2  0
  8 32  1  0
  9 32  2  0
 10 35  1  0
 11 12  1  0
 11 13  1  0
 12 14  1  0
 12 19  1  0
 13 15  1  0
 13 18  1  0
 14 16  1  0
 15 17  2  0
 15 20  1  0
 16 17  1  0
 17 24  1  0
 18 22  2  0
 18 23  1  0
 19 21  1  0
 19 25  2  0
 20 22  1  0
 26 27  1  0
 27 29  1  0
 28 32  1  0
 29 30  2  0
 29 31  1  0
 30 33  1  0
 31 34  2  0
 33 35  2  0
 34 35  1  0
 10 36  1  0
 11 37  1  0
 12 38  1  0
 13 39  1  0
 14 40  1  0
 16 41  1  0
 16 42  1  0
 22 43  1  0
 23 44  1  0
 23 45  1  0
 24 46  1  0
 24 47  1  0
 24 48  1  0
 25 49  1  0
 25 50  1  0
 27 51  1  0
 27 52  1  0
 30 53  1  0
 31 54  1  0
 33 55  1  0
 34 56  1  0
M  CHG  1   8  -1
M  END
> <Name>
102242110

> <Binding Energy>
-51.51

> <Ligand Energy>
57.2451

> <Protein Energy>
-7801.1566

> <Complex Energy>
-7795.4215

> <Complex Entropy>
-31.4893

> <Protein Entropy>
-31.4717

> <Ligand Entropy>
-20.7879

> <Entropic Energy>
20.7703

> <AbsoluteEnergy>
59.5569

> <ConfNumber>
5

> <Ionization pH>
7.5

> <IonizationIndex>
1

> <MOL_NUMBER>
20

> <NumberOfIonizations>
1

> <NumberOfStereoisomers>
1

> <NumberOfTautomers>
1

> <PUBCHEM_ATOM_DEF_STEREO_COUNT>
4

> <PUBCHEM_ATOM_UDEF_STEREO_COUNT>
0

> <PUBCHEM_BOND_DEF_STEREO_COUNT>
0

> <PUBCHEM_BOND_UDEF_STEREO_COUNT>
0

> <PUBCHEM_CACTVS_TAUTO_COUNT>
108

> <PUBCHEM_COMPONENT_COUNT>
1

> <PUBCHEM_COMPOUND_CID>
102242110

> <PUBCHEM_CONFORMER_DIVERSEORDER>
1
35
34
75
78
10
72
46
82
43
67
45
50
13
54
77
15
29
32
47
7
55
79
62
76
2
53
48
81
70
63
37
12
56
24
58
73
74
80
68
28
57
40
30
44
4
20
60
26
51
25
19
33
41
42
18
59
52
17
11
66
5
21
64
9
31
39
3
16
49
69
36
14
65
27
6
8
23
71
61
22
38

> <PUBCHEM_CONFORMER_ID>
6181730

> <PUBCHEM_CONFORMER_RMSD>
1.2

> <PUBCHEM_COORDINATE_TYPE>
2
5
10

> <PUBCHEM_EFFECTIVE_ROTOR_COUNT>
8.6

> <PUBCHEM_FEATURE_SELFOVERLAP>
61.014

> <PUBCHEM_HEAVY_ATOM_COUNT>
35

> <PUBCHEM_ISOTOPIC_ATOM_COUNT>
0

> <PUBCHEM_MMFF94_ENERGY>
80.9256

> <PUBCHEM_MMFF94_PARTIAL_CHARGES>
44
1 -0.43
10 -0.53
11 0.28
12 0.14
13 0.28
14 0.28
15 -0.12
16 0.14
17 -0.28
18 -0.28
19 -0.12
2 -0.43
20 0.54
21 0.71
22 -0.14
23 0.42
24 0.14
25 -0.3
26 0.66
27 0.2
28 0.72
29 -0.14
3 -0.57
30 -0.15
31 -0.15
32 0.72
33 -0.15
34 -0.15
35 0.08
4 -0.57
42 0.15
48 0.15
49 0.15
5 -0.43
52 0.15
53 0.15
54 0.15
55 0.15
56 0.5
57 0.45
6 -0.57
7 -0.57
8 -0.65
9 -0.57

> <PUBCHEM_PHARMACOPHORE_FEATURES>
12
1 10 donor
1 3 acceptor
1 4 acceptor
1 6 acceptor
1 7 acceptor
1 8 acceptor
1 9 acceptor
3 8 9 32 anion
5 1 11 12 19 21 rings
5 13 15 18 20 22 rings
6 29 30 31 33 34 35 rings
7 11 12 13 14 15 16 17 rings

> <PUBCHEM_SHAPE_FINGERPRINT>
10162869 55 18130782383320433807
10411042 1 18053961553843950254
11115154 58 14996285782016302359
11456790 92 18336273375294287081
117089 54 17973445408965655762
11719270 70 18202286913612897831
12107698 1 18334294262569128257
12422481 6 18130224853193635922
13140716 1 18129099099252319534
13540713 4 17770786702312708796
13540713 5 17983287411805574126
13692114 37 17346029077976743095
13782708 43 17748824129030388307
14117953 113 18272943716677447823
14725015 67 18408318869702570168
15183329 4 18270974535167300393
15403338 16 17967807237485510090
16728300 4 17970612001474979842
19301679 30 18191863428040157954
19319366 153 17898584318026995356
1979834 28 18060425685956465502
20105231 36 12540701397324877241
20771845 140 17489591172911445415
21304304 249 18413112740906166726
23559900 14 18130790105819188571
24771293 8 17917437518309452417
24893992 56 18408606994417692523
255183 451 17771648774952932422
335352 9 18272101534158334612
4112364 45 13901612087149352936
4149490 64 18337961203348323819
44880168 125 15719387369783762187
474113 269 18114738231479022882
6058803 2 17838044163517778814
6371009 1 18130514101940002305

> <PUBCHEM_SHAPE_MULTIPOLES>
661.59
21.09
3.81
1.74
35.18
3.23
-0.67
-9.16
-9.39
-5.59
1.29
-2.49
-1.43
-2.7

> <PUBCHEM_SHAPE_SELFOVERLAP>
1438.015

> <PUBCHEM_SHAPE_VOLUME>
358.2

> <RelativeEnergy>
1.85098

> <StereoisomerIndex>
1

> <TautomerIndex>
1

> <POSE_NUMBER>
3

> <LibDockScore>
111.1788

> <HotSpots>
11.21,-4.73,-14.26,P,22,7
9.01,2.67,-14.05,A,21,25
12.61,-6.33,-13.65,A,24,32

> <-In-Situ Starting Energy>
-700.537363

> <-In-Situ Final Energy>
-31.3864983

> <In-Situ Gradient>
0.01293870909

$$$$
12255414
  SciTegic09142310043D

 26 26  0  0  0  0            999 V2000
    8.0944    2.2194   -1.2195 O   0  0  0  1  0  0
    7.3130   -0.3592    1.3523 C   0  0  0  1  0  0
    7.0842    0.9541    0.5732 C   0  0  1  1  0  0
    7.3211    2.1089    1.5097 C   0  0  0  1  0  0
    6.4050   -0.3794    2.5971 C   0  0  0  1  0  0
    7.1517   -1.6242    0.4984 C   0  0  0  1  0  0
    7.9131    1.1191   -0.7110 C   0  0  0  1  0  0
    6.2470    2.8731    1.9360 C   0  0  0  1  0  0
    8.5645    2.3139    2.0974 C   0  0  0  1  0  0
    6.4083    3.8158    2.9335 C   0  0  0  1  0  0
    8.7267    3.2509    3.1037 C   0  0  0  1  0  0
    7.6407    4.0002    3.5250 C   0  0  0  1  0  0
    8.3387   -0.3835    1.7208 H   0  0
    6.0444    0.9744    0.2465 H   0  0
    5.6315    0.3852    2.6014 H   0  0
    6.9800   -0.2882    3.5092 H   0  0
    5.8694   -1.2989    2.6932 H   0  0
    8.0370   -1.7791   -0.1137 H   0  0
    6.2803   -1.5758   -0.1544 H   0  0
    7.0669   -2.5195    1.1133 H   0  0
    8.3043    0.1974   -1.1261 H   0  0
    5.2710    2.6872    1.5204 H   0  0
    9.4047    1.7115    1.8003 H   0  0
    5.5757    4.3986    3.2815 H   0  0
    9.6990    3.4027    3.5452 H   0  0
    7.7304    4.7494    4.2916 H   0  0
  1  7  2  0
  2  3  1  0
  2  5  1  0
  2  6  1  0
  3  4  1  0
  3  7  1  0
  4  8  2  0
  4  9  1  0
  8 10  1  0
  9 11  2  0
 10 12  2  0
 11 12  1  0
  2 13  1  0
  3 14  1  0
  5 15  1  0
  5 16  1  0
  5 17  1  0
  6 18  1  0
  6 19  1  0
  6 20  1  0
  7 21  1  0
  8 22  1  0
  9 23  1  0
 10 24  1  0
 11 25  1  0
 12 26  1  0
M  END
> <Name>
12255414

> <Binding Energy>
-43.9049

> <Ligand Energy>
18.513

> <Protein Energy>
-7801.1566

> <Complex Energy>
-7826.5485

> <Complex Entropy>
-31.476

> <Protein Entropy>
-31.4717

> <Ligand Entropy>
-17.698

> <Entropic Energy>
17.6937

> <AbsoluteEnergy>
19.6454

> <ConfNumber>
8

> <IonizationIndex>
1

> <MOL_NUMBER>
21

> <NumberOfIonizations>
1

> <NumberOfStereoisomers>
1

> <NumberOfTautomers>
1

> <PUBCHEM_ATOM_DEF_STEREO_COUNT>
0

> <PUBCHEM_ATOM_UDEF_STEREO_COUNT>
1

> <PUBCHEM_BOND_DEF_STEREO_COUNT>
0

> <PUBCHEM_BOND_UDEF_STEREO_COUNT>
0

> <PUBCHEM_CACTVS_TAUTO_COUNT>
2

> <PUBCHEM_COMPONENT_COUNT>
1

> <PUBCHEM_COMPOUND_CID>
12255414

> <PUBCHEM_CONFORMER_DIVERSEORDER>
2
4
1
5
3
6

> <PUBCHEM_CONFORMER_ID>
00BB00B600000002

> <PUBCHEM_CONFORMER_RMSD>
0.6

> <PUBCHEM_COORDINATE_TYPE>
2
5
10

> <PUBCHEM_EFFECTIVE_ROTOR_COUNT>
3

> <PUBCHEM_FEATURE_SELFOVERLAP>
15.223

> <PUBCHEM_HEAVY_ATOM_COUNT>
12

> <PUBCHEM_ISOTOPIC_ATOM_COUNT>
0

> <PUBCHEM_MMFF94_ENERGY>
30.4521

> <PUBCHEM_MMFF94_PARTIAL_CHARGES>
15
1 -0.57
10 -0.15
11 -0.15
12 -0.15
21 0.06
22 0.15
23 0.15
24 0.15
25 0.15
26 0.15
3 0.2
4 -0.14
7 0.45
8 -0.15
9 -0.15

> <PUBCHEM_PHARMACOPHORE_FEATURES>
3
1 1 acceptor
3 2 5 6 hydrophobe
6 4 8 9 10 11 12 rings

> <PUBCHEM_SHAPE_FINGERPRINT>
12423570 1 13388125897581074535
12932764 1 18410581664943528920
13764800 53 17131844144197344123
15775835 57 18341620299654417296
16945 1 18339361842720291084
19837323 101 16558477383207244913
20511035 2 17754753623255734597
20871998 184 18202562886746772591
21922407 69 18334856129794866088
22445834 79 18188770539736271730
22802520 49 15840452309852060368
228727 97 18194692689683528012
23236772 104 18335419101228470211
25610 171 17060611183590182315
2748010 2 16893690758955597918
3248919 1 17774716476897420478
369184 2 18335698330000601397
5084963 1 18187917430529862782
63268167 104 18114172030324528556
8030462 33 18186524323532889694

> <PUBCHEM_SHAPE_MULTIPOLES>
241.09
4.29
1.91
1.1
1.67
0.28
0.28
-0.19
0.57
-1.13
-0.15
-0.34
-0.01
-0.77

> <PUBCHEM_SHAPE_SELFOVERLAP>
490.172

> <PUBCHEM_SHAPE_VOLUME>
140

> <RelativeEnergy>
1.8077

> <StereoisomerIndex>
1

> <TautomerIndex>
1

> <POSE_NUMBER>
1

> <LibDockScore>
71.8297

> <HotSpots>
5.81,-0.33,4.34,A,91,5
6.01,0.67,0.55,A,70,7
6.61,4.27,3.15,A,86,10

> <-In-Situ Starting Energy>
-77.4739332

> <-In-Situ Final Energy>
15.9833242

> <In-Situ Gradient>
0.0008358174972

$$$$
12305974
  SciTegic09142310043D

 84 89  0  0  0  0            999 V2000
   19.9458    2.2598   -9.3440 O   0  0  0  1  0  0
   14.1782    2.2935   -9.0614 O   0  0  0  1  0  0
   12.1167    1.4663  -10.7044 O   0  0  0  1  0  0
   24.4929    0.2882  -11.5376 O   0  0  0  1  0  0
   10.5157    1.3725  -12.4605 O   0  0  0  1  0  0
   25.5235    0.2273   -9.5190 O   0  0  0  1  0  0
   10.6063    5.3846  -11.3658 O   0  0  0  1  0  0
    9.2450    4.0832  -13.2562 O   0  0  0  1  0  0
   17.6649    1.6425   -9.9218 C   0  0  1  1  0  0
   19.1736    1.1901   -9.8669 C   0  0  1  1  0  0
   16.8248    0.8326  -10.9343 C   0  0  1  1  0  0
   19.8299    0.8499  -11.2549 C   0  0  2  1  0  0
   15.2909    1.1479  -10.9672 C   0  0  2  1  0  0
   14.6858    1.0480   -9.5093 C   0  0  1  1  0  0
   17.4975    0.9546  -12.3069 C   0  0  0  1  0  0
   18.8240    0.2324  -12.2385 C   0  0  0  1  0  0
   20.8771   -0.2593  -10.9611 C   0  0  2  1  0  0
   16.9613    1.6690   -8.5419 C   0  0  0  1  0  0
   19.3936   -0.0733   -8.9985 C   0  0  0  1  0  0
   15.7609    0.7177   -8.4586 C   0  0  0  1  0  0
   20.3062   -1.0268   -9.7660 C   0  0  0  1  0  0
   14.6639    0.1110  -11.9677 C   0  0  0  1  0  0
   13.5452    0.0178   -9.3770 C   0  0  0  1  0  0
   20.4467    2.0717  -11.9649 C   0  0  0  1  0  0
   15.1187    2.5801  -11.5374 C   0  0  0  1  0  0
   13.2063   -0.3597  -11.7976 C   0  0  0  1  0  0
   12.5415    0.1261  -10.5255 C   0  0  2  1  0  0
   22.3167    0.1627  -10.7828 C   0  0  0  1  0  0
   23.1529    0.3483  -12.0226 C   0  0  0  1  0  0
   23.1428    0.1478   -9.7332 C   0  0  0  1  0  0
   10.7666    1.6575  -11.0921 C   0  0  2  1  0  0
   24.5206    0.2351  -10.2157 C   0  0  0  1  0  0
   10.3745    3.0832  -10.7591 C   0  0  0  1  0  0
   11.0593    4.0836  -11.6764 C   0  0  1  1  0  0
   10.8574    2.3022  -13.4847 C   0  0  1  1  0  0
   10.6213    3.7799  -13.1093 C   0  0  1  1  0  0
   12.2682    2.0450  -14.0188 C   0  0  0  1  0  0
   11.1325    5.9539  -10.1828 C   0  0  0  1  0  0
   19.6594    2.4923   -8.4707 H   0  0
   13.3437    2.4577   -9.4913 H   0  0
    9.0744    4.9361  -12.8638 H   0  0
   17.6680    2.6650  -10.2961 H   0  0
   16.9061   -0.2115  -10.6277 H   0  0
   16.9096    0.4866  -13.0928 H   0  0
   17.6383    1.9956  -12.5961 H   0  0
   19.2579    0.1378  -13.2346 H   0  0
   18.5930   -0.7693  -11.9108 H   0  0
   20.8971   -0.9504  -11.8062 H   0  0
   17.6359    1.4334   -7.7195 H   0  0
   16.5950    2.6773   -8.3530 H   0  0
   19.8379    0.1528   -8.0284 H   0  0
   18.4510   -0.5781   -8.7877 H   0  0
   15.3249    0.7725   -7.4600 H   0  0
   16.0984   -0.3122   -8.5732 H   0  0
   19.7105   -1.8624  -10.1314 H   0  0
   21.0745   -1.4705   -9.1336 H   0  0
   14.7745    0.4714  -12.9906 H   0  0
   15.2637   -0.7989  -11.9409 H   0  0
   13.9559   -0.9919   -9.3588 H   0  0
   13.0350    0.1385   -8.4196 H   0  0
   21.1907    2.5844  -11.3541 H   0  0
   19.6746    2.7929  -12.2178 H   0  0
   20.9128    1.7892  -12.9081 H   0  0
   15.5687    2.6880  -12.5230 H   0  0
   15.5782    3.3253  -10.8858 H   0  0
   14.0814    2.8662  -11.6670 H   0  0
   13.1967   -1.4501  -11.7905 H   0  0
   12.5980   -0.0963  -12.6570 H   0  0
   11.6854   -0.5115  -10.2983 H   0  0
   22.9973    1.3246  -12.4799 H   0  0
   22.9836   -0.4439  -12.7520 H   0  0
   22.8581    0.0586   -8.7050 H   0  0
   10.1323    1.0040  -10.4905 H   0  0
   10.5785    3.2761   -9.7090 H   0  0
    9.3062    3.1807  -10.9105 H   0  0
   12.1442    4.0278  -11.5878 H   0  0
   10.1833    2.0916  -14.3136 H   0  0
   11.1777    4.4127  -13.8083 H   0  0
   12.3314    1.0622  -14.4841 H   0  0
   12.9990    2.0884  -13.2213 H   0  0
   12.5488    2.7788  -14.7747 H   0  0
   12.1883    6.1952  -10.3123 H   0  0
   11.0352    5.2855   -9.3298 H   0  0
   10.5854    6.8644   -9.9391 H   0  0
  1 10  1  0
  2 14  1  0
  3 27  1  0
  3 31  1  0
  4 29  1  0
  4 32  1  0
  5 31  1  0
  5 35  1  0
  6 32  2  0
  7 34  1  0
  7 38  1  0
  8 36  1  0
  9 10  1  0
  9 11  1  0
  9 18  1  0
 10 12  1  0
 10 19  1  0
 11 13  1  0
 11 15  1  0
 12 16  1  0
 12 17  1  0
 12 24  1  0
 13 14  1  0
 13 22  1  0
 13 25  1  0
 14 20  1  0
 14 23  1  0
 15 16  1  0
 17 21  1  0
 17 28  1  0
 18 20  1  0
 19 21  1  0
 22 26  1  0
 23 27  1  0
 26 27  1  0
 28 29  1  0
 28 30  2  0
 30 32  1  0
 31 33  1  0
 33 34  1  0
 34 36  1  0
 35 36  1  0
 35 37  1  0
  1 39  1  0
  2 40  1  0
  8 41  1  0
  9 42  1  0
 11 43  1  0
 15 44  1  0
 15 45  1  0
 16 46  1  0
 16 47  1  0
 17 48  1  0
 18 49  1  0
 18 50  1  0
 19 51  1  0
 19 52  1  0
 20 53  1  0
 20 54  1  0
 21 55  1  0
 21 56  1  0
 22 57  1  0
 22 58  1  0
 23 59  1  0
 23 60  1  0
 24 61  1  0
 24 62  1  0
 24 63  1  0
 25 64  1  0
 25 65  1  0
 25 66  1  0
 26 67  1  0
 26 68  1  0
 27 69  1  0
 29 70  1  0
 29 71  1  0
 30 72  1  0
 31 73  1  0
 33 74  1  0
 33 75  1  0
 34 76  1  0
 35 77  1  0
 36 78  1  0
 37 79  1  0
 37 80  1  0
 37 81  1  0
 38 82  1  0
 38 83  1  0
 38 84  1  0
M  END
> <Name>
12305974

> <Binding Energy>
-52.5275

> <Ligand Energy>
70.2782

> <Protein Energy>
-7801.1566

> <Complex Energy>
-7783.4059

> <Complex Entropy>
-31.4926

> <Protein Entropy>
-31.4717

> <Ligand Entropy>
-20.9207

> <Entropic Energy>
20.8997

> <AbsoluteEnergy>
72.8882

> <ConfNumber>
24

> <IonizationIndex>
1

> <MOL_NUMBER>
22

> <NumberOfIonizations>
1

> <NumberOfStereoisomers>
1

> <NumberOfTautomers>
1

> <PUBCHEM_ATOM_DEF_STEREO_COUNT>
12

> <PUBCHEM_ATOM_UDEF_STEREO_COUNT>
0

> <PUBCHEM_BOND_DEF_STEREO_COUNT>
0

> <PUBCHEM_BOND_UDEF_STEREO_COUNT>
0

> <PUBCHEM_CACTVS_TAUTO_COUNT>
1

> <PUBCHEM_COMPONENT_COUNT>
1

> <PUBCHEM_COMPOUND_CID>
12305974

> <PUBCHEM_CONFORMER_DIVERSEORDER>
8
18
22
20
10
17
11
21
14
15
6
9
16
12
1
19
4
5
23
2
13
3
7

> <PUBCHEM_CONFORMER_ID>
00BBC63600000008

> <PUBCHEM_CONFORMER_RMSD>
1

> <PUBCHEM_COORDINATE_TYPE>
2
5
10

> <PUBCHEM_EFFECTIVE_ROTOR_COUNT>
7.8

> <PUBCHEM_FEATURE_SELFOVERLAP>
81.485

> <PUBCHEM_HEAVY_ATOM_COUNT>
38

> <PUBCHEM_ISOTOPIC_ATOM_COUNT>
0

> <PUBCHEM_MMFF94_ENERGY>
136.843

> <PUBCHEM_MMFF94_PARTIAL_CHARGES>
25
1 -0.68
10 0.28
14 0.28
17 0.14
2 -0.68
27 0.28
28 -0.28
29 0.42
3 -0.56
30 -0.14
31 0.56
32 0.71
34 0.28
35 0.28
36 0.28
38 0.28
4 -0.43
5 -0.56
6 -0.57
67 0.4
68 0.4
7 -0.56
71 0.15
8 -0.68
81 0.4

> <PUBCHEM_PHARMACOPHORE_FEATURES>
16
1 1 acceptor
1 1 donor
1 2 acceptor
1 2 donor
1 3 acceptor
1 5 acceptor
1 6 acceptor
1 7 acceptor
1 8 acceptor
1 8 donor
5 10 12 17 19 21 rings
5 4 28 29 30 32 rings
6 13 14 22 23 26 27 rings
6 5 31 33 34 35 36 rings
6 9 10 11 12 15 16 rings
6 9 11 13 14 18 20 rings

> <PUBCHEM_SHAPE_FINGERPRINT>
10 15 13984665849647650822
10076449 9 15913325784857757441
10165383 225 18259982665789604247
10299344 5 15339122342331018566
10533779 47 8285924635649019077
10674148 151 17988639675379532073
11007060 377 18342745109203874865
11135926 11 17917440821461868550
11456790 92 14129054820519441852
12838863 1 10015571810542406133
13150687 139 18408045091824640894
13383668 362 10810218584292002734
13560911 43 15140962850678110805
13673619 4 13326853322942995074
13690498 29 16773512196640863785
13726171 33 17605546653457988461
13811026 1 18273213114770675944
14340393 91 17346600742302484000
14849402 71 15068917398496988678
14856354 85 14907903803117820604
14931854 50 18060419084380637275
150020 25 18272374182829305182
15064981 194 18116168820449320165
15064986 266 17846513512212103003
15082195 135 18059858424257228392
15131766 46 11741824903713708682
15183329 4 18413107264938538530
15198563 99 17846228709058660432
15276724 80 18270399382832132309
15301273 46 9223238441928714761
15320295 40 9079110047772994127
15361156 5 17917986214047120813
15392192 104 8358242766660750024
15439362 3 17629464565561155640
1577012 14 15936413372719784614
15840311 113 15719389504440107570
16994733 274 17677046850681740813
18393751 57 15357698582602968315
18603816 31 13038607549819071125
18608769 82 18337388340436153731
19304144 158 15430304795100892695
20105231 36 17918274260450940599
20505436 4 17895186697636595931
20554085 129 17749103409753272570
21033648 29 17458344191164815736
21304304 249 10231747912243630729
21403212 168 12179839507038438200
21792965 131 13262674907050948689
22122407 14 15864367865199713988
22224240 67 13045944607536512313
23559900 14 18058720433373401345
23576562 1 18198051672659292717
24771293 8 17603587401135535845
2838139 119 16805317825490071950
3178227 256 14851609873011786807
3383291 50 10663816386561613197
3633792 109 18202568393464486520
4015057 19 17845662564081048432
4098825 35 18272928324026686005
439807 62 16487257656169756324
44880568 143 18337674243012106028
474113 269 12175619547547433949
5219985 9 14045742616542772082
5265222 85 18059849610567228623
5470011 282 17275105046483362748
5758199 1 17748825203019969739
5937810 71 18200879474959307249
6081469 158 13830131676628629619
9962374 69 9871453314861275322

> <PUBCHEM_SHAPE_MULTIPOLES>
735.07
24.94
2.3
2.02
6.94
0.36
-0.02
12.66
-13.25
-0.02
0.57
1.97
-0.38
1.63

> <PUBCHEM_SHAPE_SELFOVERLAP>
1578.285

> <PUBCHEM_SHAPE_VOLUME>
403.4

> <RelativeEnergy>
8.54514

> <StereoisomerIndex>
1

> <TautomerIndex>
1

> <POSE_NUMBER>
3

> <LibDockScore>
109.4234

> <HotSpots>
21.81,4.27,-8.86,P,37,4
9.01,2.67,-14.05,A,21,35
9.21,3.67,-12.86,A,26,36

> <-In-Situ Starting Energy>
-1060.42166

> <-In-Situ Final Energy>
-59.5365287

> <In-Situ Gradient>
0.316919746

$$$$
12581242
  SciTegic09142310043D

 18 18  0  0  0  0            999 V2000
    7.6401   -0.9285   -0.2127 O   0  0  0  1  0  0
    3.5310    2.8370   -1.5090 O   0  0  0  1  0  0
    4.4213    1.7992   -1.2494 N   0  0  0  1  0  0
    7.3328   -0.4590    2.0737 C   0  0  0  1  0  0
    7.4981   -1.5665    1.0331 C   0  0  0  1  0  0
    6.4524   -0.3226   -0.6848 C   0  0  0  1  0  0
    5.9303    0.6421    0.3462 C   0  0  0  1  0  0
    6.3995    0.6151    1.6037 C   0  0  0  1  0  0
    4.9849    1.7005   -0.0386 C   0  0  0  1  0  0
    3.9010    3.2777   -2.2795 H   0  0
    6.9969   -0.8427    3.0335 H   0  0
    8.3088   -0.0055    2.2028 H   0  0
    8.3659   -2.1892    1.2451 H   0  0
    6.6450   -2.2386    1.0012 H   0  0
    6.6735    0.1936   -1.6195 H   0  0
    5.6987   -1.0806   -0.8911 H   0  0
    6.0689    1.3135    2.3493 H   0  0
    4.7168    2.4746    0.6665 H   0  0
  1  5  1  0
  1  6  1  0
  2  3  1  0
  3  9  2  0
  4  5  1  0
  4  8  1  0
  6  7  1  0
  7  8  2  0
  7  9  1  0
  2 10  1  0
  4 11  1  0
  4 12  1  0
  5 13  1  0
  5 14  1  0
  6 15  1  0
  6 16  1  0
  8 17  1  0
  9 18  1  0
M  END
> <Name>
12581242

> <Binding Energy>
-18.7522

> <Ligand Energy>
19.4551

> <Protein Energy>
-7801.1566

> <Complex Energy>
-7800.4538

> <Complex Entropy>
-31.475

> <Protein Entropy>
-31.4717

> <Ligand Entropy>
-17.0143

> <Entropic Energy>
17.011

> <AbsoluteEnergy>
8.37581

> <ConfNumber>
2

> <Ionization pH>
7.5

> <IonizationIndex>
1

> <MOL_NUMBER>
24

> <NumberOfIonizations>
1

> <NumberOfStereoisomers>
1

> <NumberOfTautomers>
1

> <PUBCHEM_ATOM_DEF_STEREO_COUNT>
0

> <PUBCHEM_ATOM_UDEF_STEREO_COUNT>
0

> <PUBCHEM_BOND_DEF_STEREO_COUNT>
1

> <PUBCHEM_BOND_UDEF_STEREO_COUNT>
0

> <PUBCHEM_CACTVS_TAUTO_COUNT>
2

> <PUBCHEM_COMPONENT_COUNT>
1

> <PUBCHEM_COMPOUND_CID>
12581242

> <PUBCHEM_CONFORMER_DIVERSEORDER>
1
3
4
2

> <PUBCHEM_CONFORMER_ID>
00BFF97A00000001

> <PUBCHEM_CONFORMER_RMSD>
0.4

> <PUBCHEM_COORDINATE_TYPE>
2
5
10

> <PUBCHEM_EFFECTIVE_ROTOR_COUNT>
1.8

> <PUBCHEM_FEATURE_SELFOVERLAP>
20.297

> <PUBCHEM_HEAVY_ATOM_COUNT>
9

> <PUBCHEM_ISOTOPIC_ATOM_COUNT>
0

> <PUBCHEM_MMFF94_ENERGY>
9.506

> <PUBCHEM_MMFF94_PARTIAL_CHARGES>
12
1 -0.56
16 0.15
17 0.06
18 0.4
2 -0.34
3 -0.51
4 0.14
5 0.28
6 0.42
7 -0.12
8 -0.29
9 0.38

> <PUBCHEM_PHARMACOPHORE_FEATURES>
4
1 1 acceptor
1 2 anion
1 3 acceptor
6 1 4 5 6 7 8 rings

> <PUBCHEM_SHAPE_FINGERPRINT>
12897270 3 18408323284976072293
12932764 1 17894342272605398407
14325111 11 18339361967358751541
20871998 22 18055355730366614934
21040471 1 18194120939663844232
21293036 1 18337121124291423404
23235685 24 18336823207958584556
23402655 69 18340476799652012957
23552333 60 18343021073288988976
23552423 10 18189341164848894342
29004967 10 18333454239711241400
5084963 1 18413673508556973184

> <PUBCHEM_SHAPE_MULTIPOLES>
168.5
4.37
1.31
0.61
3.52
0.02
-0.01
0.04
-0.21
-0.67
0.07
-0.1
0
-0.01

> <PUBCHEM_SHAPE_SELFOVERLAP>
332.858

> <PUBCHEM_SHAPE_VOLUME>
100.1

> <RelativeEnergy>
0.71119

> <StereoisomerIndex>
1

> <TautomerIndex>
1

> <POSE_NUMBER>
1

> <LibDockScore>
58.1623

> <HotSpots>
3.21,3.27,-1.25,P,79,2
6.21,0.27,3.35,A,87,4
6.01,0.67,0.55,A,70,6

> <-In-Situ Starting Energy>
-715.550979

> <-In-Situ Final Energy>
14.3206307

> <In-Situ Gradient>
0.0007460922356

$$$$
132525141
  SciTegic09142310043D

 49 51  0  0  0  0            999 V2000
   10.4837    3.5445  -14.2179 O   0  0  0  1  0  0
   13.7759    2.2983  -14.8478 O   0  0  0  1  0  0
   11.3539   -0.8579  -12.1281 O   0  0  0  1  0  0
   14.2755   -2.4576  -15.5072 O   0  0  0  1  0  0
   14.8589   -0.8364  -17.4214 O   0  0  0  1  0  0
   18.3706    5.8591  -20.0986 O   0  0  0  1  0  0
    9.6409    3.3086  -13.0738 C   0  0  0  1  0  0
   10.5306    2.2423  -13.5896 C   0  0  2  1  0  0
   11.8117    1.8977  -12.8283 C   0  0  0  1  0  0
    8.1501    3.1104  -13.3373 C   0  0  0  1  0  0
   10.0302    4.0613  -11.8052 C   0  0  0  1  0  0
   12.5489    0.7554  -13.4980 C   0  0  0  1  0  0
   13.4758    0.9909  -14.5261 C   0  0  0  1  0  0
   12.2682   -0.5615  -13.1272 C   0  0  0  1  0  0
   14.0705   -0.0747  -15.2197 C   0  0  0  1  0  0
   12.8998   -1.6120  -13.7692 C   0  0  0  1  0  0
   13.7813   -1.3729  -14.8078 C   0  0  0  1  0  0
   14.9256    0.1030  -16.4247 C   0  0  0  1  0  0
   15.7738    1.1405  -16.5773 C   0  0  0  1  0  0
   15.6090   -2.7904  -15.1743 C   0  0  0  1  0  0
   16.6421    1.2774  -17.7608 C   0  0  0  1  0  0
   17.0681    2.4257  -18.3257 C   0  0  0  1  0  0
   16.6505    3.7585  -17.8532 C   0  0  0  1  0  0
   17.9558    2.4076  -19.5036 C   0  0  0  1  0  0
   17.0432    4.9033  -18.4475 C   0  0  0  1  0  0
   18.3800    3.5296  -20.1186 C   0  0  0  1  0  0
   17.9518    4.8537  -19.6135 C   0  0  0  1  0  0
   14.3182    2.6385  -14.1500 H   0  0
   10.5023   -0.4842  -12.3275 H   0  0
   14.2772   -1.5464  -17.1678 H   0  0
   10.0339    1.4388  -14.1320 H   0  0
   11.5838    1.6357  -11.7951 H   0  0
   12.4364    2.7829  -12.7467 H   0  0
    7.9719    2.6848  -14.3252 H   0  0
    7.6152    4.0587  -13.2854 H   0  0
    7.7125    2.4352  -12.6036 H   0  0
    9.4772    4.9964  -11.7320 H   0  0
   11.0893    4.3153  -11.7900 H   0  0
    9.8130    3.4683  -10.9172 H   0  0
   12.6867   -2.6313  -13.4890 H   0  0
   15.8712    1.9185  -15.8511 H   0  0
   15.6377   -3.3431  -14.2411 H   0  0
   16.2480   -1.9096  -15.0960 H   0  0
   16.0221   -3.4411  -15.9452 H   0  0
   16.9129    0.3374  -18.2064 H   0  0
   16.0013    3.7960  -17.0017 H   0  0
   18.2639    1.4455  -19.8699 H   0  0
   16.7154    5.8609  -18.0915 H   0  0
   19.0279    3.4860  -20.9729 H   0  0
  1  7  1  0
  1  8  1  0
  2 13  1  0
  3 14  1  0
  4 17  1  0
  4 20  1  0
  5 18  1  0
  6 27  2  0
  7  8  1  0
  7 10  1  0
  7 11  1  0
  8  9  1  0
  9 12  1  0
 12 13  2  0
 12 14  1  0
 13 15  1  0
 14 16  2  0
 15 17  2  0
 15 18  1  0
 16 17  1  0
 18 19  2  0
 19 21  1  0
 21 22  2  0
 22 23  1  0
 22 24  1  0
 23 25  2  0
 24 26  2  0
 25 27  1  0
 26 27  1  0
  2 28  1  0
  3 29  1  0
  5 30  1  0
  8 31  1  0
  9 32  1  0
  9 33  1  0
 10 34  1  0
 10 35  1  0
 10 36  1  0
 11 37  1  0
 11 38  1  0
 11 39  1  0
 16 40  1  0
 19 41  1  0
 20 42  1  0
 20 43  1  0
 20 44  1  0
 21 45  1  0
 23 46  1  0
 24 47  1  0
 25 48  1  0
 26 49  1  0
M  END
> <Name>
132525141

> <Binding Energy>
-43.9604

> <Ligand Energy>
33.8648

> <Protein Energy>
-7801.1566

> <Complex Energy>
-7811.2523

> <Complex Entropy>
-31.487

> <Protein Entropy>
-31.4717

> <Ligand Entropy>
-20.1928

> <Entropic Energy>
20.1774

> <AbsoluteEnergy>
63.8911

> <ConfNumber>
56

> <Ionization pH>
7.5

> <IonizationIndex>
1

> <MOL_NUMBER>
27

> <NumberOfIonizations>
1

> <NumberOfStereoisomers>
1

> <NumberOfTautomers>
4

> <PUBCHEM_ATOM_DEF_STEREO_COUNT>
0

> <PUBCHEM_ATOM_UDEF_STEREO_COUNT>
1

> <PUBCHEM_BOND_DEF_STEREO_COUNT>
1

> <PUBCHEM_BOND_UDEF_STEREO_COUNT>
0

> <PUBCHEM_CACTVS_TAUTO_COUNT>
127

> <PUBCHEM_COMPONENT_COUNT>
1

> <PUBCHEM_COMPOUND_CID>
132525141

> <PUBCHEM_CONFORMER_DIVERSEORDER>
1
105
128
78
51
131
115
12
76
102
127
30
62
107
22
64
55
13
28
120
80
81
14
90
54
93
42
43
37
124
45
83
86
44
118
132
74
75
25
119
111
98
46
123
130
126
15
16
113
91
106
66
17
84
19
20
82
32
104
88
125
23
89
77
26
103
116
56
11
35
110
31
108
71
21
97
52
79
47
100
73
4
60
2
8
101
33
6
59
94
109
7
69
96
27
129
99
112
57
24
95
18
114
133
92
34
65
50
67
72
5
68
9
41
121
85
117
134
10
36
40
38
70
87
61
122
58
49
29
63
39
53
3
48

> <PUBCHEM_CONFORMER_ID>
07E62C5500000001

> <PUBCHEM_CONFORMER_RMSD>
0.8

> <PUBCHEM_COORDINATE_TYPE>
2
5
10

> <PUBCHEM_EFFECTIVE_ROTOR_COUNT>
6.6

> <PUBCHEM_FEATURE_SELFOVERLAP>
45.671

> <PUBCHEM_HEAVY_ATOM_COUNT>
27

> <PUBCHEM_ISOTOPIC_ATOM_COUNT>
0

> <PUBCHEM_MMFF94_ENERGY>
91.5137

> <PUBCHEM_MMFF94_PARTIAL_CHARGES>
38
1 -0.3
10 0.09
11 0.09
12 -0.14
13 0.08
14 0.08
15 0.09
16 -0.15
17 0.08
18 0.47
19 -0.14
2 -0.53
20 0.28
21 -0.18
22 0.03
23 -0.15
24 -0.15
25 -0.15
26 -0.15
27 0.08
28 0.1
3 -0.53
37 0.15
38 0.45
39 0.45
4 -0.36
40 0.15
44 0.15
45 0.15
46 0.15
47 0.15
48 0.15
49 0.45
5 -0.57
6 -0.53
7 -0.04
8 -0.05
9 0.24

> <PUBCHEM_PHARMACOPHORE_FEATURES>
9
1 1 acceptor
1 2 donor
1 3 donor
1 4 acceptor
1 5 acceptor
1 6 donor
3 7 10 11 hydrophobe
6 12 13 14 15 16 17 rings
6 22 23 24 25 26 27 rings

> <PUBCHEM_SHAPE_FINGERPRINT>
10369192 42 18408891745689071701
105312 117 18411698811543693742
10670039 82 18411132571428740549
10674148 151 15339122291208064929
11475781 23 17989480832414941424
11578080 2 18341899537486014407
1200032 147 18340213968890821305
12293681 160 17918276437102249562
12390115 104 18272653442009014403
12422481 6 17386284281453817733
12633257 1 15575004982647767397
12895836 83 18412259532567220273
12895837 130 18261962958834560916
12975358 362 17608382233775043061
13540713 5 18196347287797609639
13690498 29 17702376450174277463
14211702 104 9439414548743695120
14294032 229 18342737417413052861
14844126 61 10809338945563255373
15163728 17 18335985285355887351
15183329 4 17775292638249456616
15188451 53 9655576292590496488
15575132 122 18408885139829163445
15803439 3 17274810334227477733
17780758 139 8718836370305782316
17980427 23 17676491665538041669
21033648 29 18341887541505265256
21424621 283 18187083970867697376
21637258 2 11167938047989991112
21756936 100 18041282152912581699
22122407 14 17386301981373363676
22393880 68 17917138489759328434
23389318 12 13470685967602917016
23559900 14 17131551760515417802
23569914 2 17243546764684895773
24771750 20 18130229233892363687
25025965 108 14332024564655950204
255183 451 17266078258142144583
2838139 119 18334283245593158297
392239 28 15213301953883454180
4015057 19 16056317353527889434
4058900 60 18336551521006983978
44249763 50 18199733873488682504
46194498 28 17344056635815082944
474113 269 7853561389283901257
5104073 3 15864632911974399240
5283173 99 18201154472802782960
57527293 21 18190738627965969115
57527585 21 18051386506776899733
57724786 102 17312824892623034172
6327066 14 18336819798108324173
633830 44 17894908495197818986
6608658 132 18335408063664277349
7808743 9 18411409593109959953
7970288 3 9943809980288983868

> <PUBCHEM_SHAPE_MULTIPOLES>
520.43
17.16
3.66
1.59
14.41
1.59
-0.21
-20.49
5.52
-4.11
1.21
0.63
-0.09
-0.68

> <PUBCHEM_SHAPE_SELFOVERLAP>
1115.882

> <PUBCHEM_SHAPE_VOLUME>
289.2

> <RelativeEnergy>
11.6893

> <StereoisomerIndex>
1

> <TautomerIndex>
2

> <POSE_NUMBER>
1

> <LibDockScore>
80.2661

> <HotSpots>
9.21,3.67,-12.86,A,26,10
16.81,4.47,-18.66,A,7,21
17.61,7.87,-18.45,A,8,25

> <-In-Situ Starting Energy>
-147.935531

> <-In-Situ Final Energy>
12.4163497

> <In-Situ Gradient>
0.0008483297134

$$$$
19908724
  SciTegic09142310043D

 18 19  0  0  0  0            999 V2000
    7.3903    0.4926   -0.8882 S   0  0  0  1  0  0
    6.4234    0.1303   -1.8754 O   0  0  0  1  0  0
    8.3129    1.5573   -1.1284 O   0  0  0  1  0  0
    8.0823   -2.2085    1.4333 O   0  0  0  1  0  0
    3.8396    2.4931   -0.3507 O   0  5  0  1  0  0
    5.8242    3.1339   -0.9960 O   0  0  0  1  0  0
    8.1717   -0.8150   -0.3464 N   0  5  0  1  0  0
    5.0672    2.5187   -0.2742 N   0  3  0  1  0  0
    6.5669    0.7949    0.5100 C   0  0  0  1  0  0
    6.9208   -0.1776    1.4462 C   0  0  0  1  0  0
    5.6464    1.7312    0.8064 C   0  0  0  1  0  0
    7.7582   -1.1650    0.8900 C   0  0  0  1  0  0
    6.4295   -0.0981    2.7159 C   0  0  0  1  0  0
    5.1038    1.8216    2.0844 C   0  0  0  1  0  0
    5.5336    0.9072    3.0489 C   0  0  0  1  0  0
    6.7050   -0.8230    3.4635 H   0  0
    4.3505    2.5611    2.3015 H   0  0
    5.1344    0.8823    4.0421 H   0  0
  1  2  2  0
  1  3  2  0
  1  7  1  0
  1  9  1  0
  4 12  2  0
  5  8  1  0
  6  8  2  0
  7 12  1  0
  8 11  1  0
  9 10  2  0
  9 11  1  0
 10 12  1  0
 10 13  1  0
 11 14  2  0
 13 15  2  0
 14 15  1  0
 13 16  1  0
 14 17  1  0
 15 18  1  0
M  CHG  3   5  -1   7  -1   8   1
M  END
> <Name>
19908724

> <Binding Energy>
-7.9402

> <Ligand Energy>
-19.752

> <Protein Energy>
-7801.1566

> <Complex Energy>
-7828.8489

> <Complex Entropy>
-31.4776

> <Protein Entropy>
-31.4717

> <Ligand Entropy>
-18.2738

> <Entropic Energy>
18.2678

> <AbsoluteEnergy>
46.3515

> <ConfNumber>
1

> <Ionization pH>
6.73_D

> <IonizationIndex>
2

> <MOL_NUMBER>
39

> <NumberOfIonizations>
2

> <NumberOfStereoisomers>
1

> <NumberOfTautomers>
1

> <PUBCHEM_ATOM_DEF_STEREO_COUNT>
0

> <PUBCHEM_ATOM_UDEF_STEREO_COUNT>
0

> <PUBCHEM_BOND_DEF_STEREO_COUNT>
0

> <PUBCHEM_BOND_UDEF_STEREO_COUNT>
0

> <PUBCHEM_CACTVS_TAUTO_COUNT>
2

> <PUBCHEM_COMPONENT_COUNT>
1

> <PUBCHEM_COMPOUND_CID>
19908724

> <PUBCHEM_CONFORMER_DIVERSEORDER>
1

> <PUBCHEM_CONFORMER_ID>
012FC87400000001

> <PUBCHEM_CONFORMER_RMSD>
0.6

> <PUBCHEM_COORDINATE_TYPE>
2
5
10

> <PUBCHEM_EFFECTIVE_ROTOR_COUNT>
1.2

> <PUBCHEM_FEATURE_SELFOVERLAP>
45.837

> <PUBCHEM_HEAVY_ATOM_COUNT>
15

> <PUBCHEM_ISOTOPIC_ATOM_COUNT>
0

> <PUBCHEM_MMFF94_ENERGY>
35.7571

> <PUBCHEM_MMFF94_PARTIAL_CHARGES>
19
1 1.45
10 0.09
11 0.13
12 0.72
13 -0.15
14 -0.15
15 -0.15
16 0.42
17 0.15
18 0.15
19 0.15
2 -0.65
3 -0.65
4 -0.57
5 -0.52
6 -0.52
7 -0.79
8 0.91
9 -0.01

> <PUBCHEM_PHARMACOPHORE_FEATURES>
9
1 2 acceptor
1 3 acceptor
1 4 acceptor
1 5 acceptor
1 5 anion
1 6 acceptor
1 7 donor
5 1 7 9 10 12 rings
6 9 10 11 13 14 15 rings

> <PUBCHEM_SHAPE_FINGERPRINT>
10353120 184 18409733954009896901
10967382 1 18410855486040539777
11680986 33 18050573146484486057
12382932 28 18124870420065244056
12423570 1 12215076037310846388
12524768 44 18125162885773236756
13140716 1 18338517559809027225
13172582 1 18410852187437045889
13380535 21 17758977186762629941
13380535 76 17689706889071350121
14251711 518 17835520801290147342
16945 1 18410575071957551079
17990270 104 18052543462789424804
193761 8 17690280413350149253
20511035 2 18048605007943997221
20645476 183 17676781971052096846
20871998 184 18341884144011806796
20905425 154 18052820239109142406
21501502 16 17978226393799676549
2334 1 18122343751108375437
23402539 116 18270946999567008742
23419403 2 16258907945248683804
23463225 33 18262796251034816330
23552423 10 17830172767979257965
23559900 14 18413111654743320228
241688 4 17980497671200242073
2748010 2 18266176330304532061
43471831 8 18117552925559266938
5084963 1 18131075926063313617
53812654 25 18339630261107230584
589210 1 17688593079481322617
7364860 26 17839185451933908432

> <PUBCHEM_SHAPE_MULTIPOLES>
273.23
3.67
2.81
0.88
0.08
0.56
0
-0.3
0
0.16
0
-0.4
-0.44
0

> <PUBCHEM_SHAPE_SELFOVERLAP>
584.968

> <PUBCHEM_SHAPE_VOLUME>
152.7

> <RelativeEnergy>
0

> <StereoisomerIndex>
1

> <TautomerIndex>
1

> <POSE_NUMBER>
1

> <LibDockScore>
58.7381

> <HotSpots>
3.21,3.27,-1.25,P,79,5
7.01,-0.53,1.54,A,78,12
6.01,1.67,2.54,A,83,13

> <-In-Situ Starting Energy>
-5063.84843

> <-In-Situ Final Energy>
1.4829636

> <In-Situ Gradient>
0.0008366219755

$$$$
25200812
  SciTegic09142310043D

 32 33  0  0  0  0            999 V2000
    8.0759    0.2194    0.0549 O   0  5  0  1  0  0
    3.7918    2.1941    0.2127 O   0  0  0  1  0  0
    7.1237    3.1010    3.5422 O   0  0  0  1  0  0
    4.5217    0.6965   -1.6865 O   0  0  0  1  0  0
    7.9887   -2.4877   -7.2600 O   0  0  0  1  0  0
   10.4975   -1.6240   -7.1621 O   0  0  0  1  0  0
    6.0165    1.2151   -0.0085 C   0  0  0  1  0  0
    7.5233   -0.0705   -4.6377 C   0  0  0  1  0  0
    7.2633    0.9707    0.5688 C   0  0  0  1  0  0
    5.0672    1.9371    0.7169 C   0  0  0  1  0  0
    5.6801    0.7701   -1.3699 C   0  0  0  1  0  0
    6.4736    0.2738   -3.6704 C   0  0  0  1  0  0
    7.6185    1.6116    1.7405 C   0  0  0  1  0  0
    5.4148    2.4939    1.9374 C   0  0  0  1  0  0
    6.7550    0.5617   -2.3852 C   0  0  0  1  0  0
    6.7138    2.4136    2.4105 C   0  0  0  1  0  0
    7.3301   -1.1009   -5.5053 C   0  0  0  1  0  0
    8.8135    0.3511   -4.5352 C   0  0  0  1  0  0
    8.3405   -1.7843   -6.1587 C   0  0  0  1  0  0
    9.6113   -1.2744   -6.1597 C   0  0  0  1  0  0
    9.8152   -0.1677   -5.3968 C   0  0  0  1  0  0
    3.9254    2.2593   -0.7407 H   0  0
    6.5313    3.7980    3.8193 H   0  0
    8.5881   -2.1343   -7.9113 H   0  0
   11.3616   -1.8011   -6.7976 H   0  0
    5.4595    0.2381   -4.0154 H   0  0
    8.6266    1.4735    2.0933 H   0  0
    4.6626    3.0585    2.4509 H   0  0
    7.7776    0.6268   -2.0678 H   0  0
    6.5794   -1.7613   -5.1788 H   0  0
    8.9847    1.2072   -3.9010 H   0  0
   10.7575    0.3470   -5.5209 H   0  0
  1  9  1  0
  2 10  1  0
  3 16  1  0
  4 11  2  0
  5 19  1  0
  6 20  1  0
  7  9  2  0
  7 10  1  0
  7 11  1  0
  8 12  1  0
  8 17  2  0
  8 18  1  0
  9 13  1  0
 10 14  2  0
 11 15  1  0
 12 15  2  0
 13 16  2  0
 14 16  1  0
 17 19  1  0
 18 21  2  0
 19 20  2  0
 20 21  1  0
  2 22  1  0
  3 23  1  0
  5 24  1  0
  6 25  1  0
 12 26  1  0
 13 27  1  0
 14 28  1  0
 15 29  1  0
 17 30  1  0
 18 31  1  0
 21 32  1  0
M  CHG  1   1  -1
M  END
> <Name>
25200812

> <Binding Energy>
-47.8174

> <Ligand Energy>
63.614

> <Protein Energy>
-7801.1566

> <Complex Energy>
-7785.36

> <Complex Entropy>
-31.4795

> <Protein Entropy>
-31.4717

> <Ligand Entropy>
-19.4019

> <Entropic Energy>
19.3941

> <AbsoluteEnergy>
43.7165

> <ConfNumber>
6

> <Ionization pH>
7.72_DPPPP

> <IonizationIndex>
2

> <MOL_NUMBER>
53

> <NumberOfIonizations>
2

> <NumberOfStereoisomers>
2

> <NumberOfTautomers>
4

> <PUBCHEM_ATOM_DEF_STEREO_COUNT>
0

> <PUBCHEM_ATOM_UDEF_STEREO_COUNT>
0

> <PUBCHEM_BOND_DEF_STEREO_COUNT>
0

> <PUBCHEM_BOND_UDEF_STEREO_COUNT>
1

> <PUBCHEM_CACTVS_TAUTO_COUNT>
225

> <PUBCHEM_COMPONENT_COUNT>
1

> <PUBCHEM_COMPOUND_CID>
25200812

> <PUBCHEM_CONFORMER_DIVERSEORDER>
1
16
12
8
15
5
7
3
17
11
14
9
13
6
2
10
4

> <PUBCHEM_CONFORMER_ID>
018088AC00000001

> <PUBCHEM_CONFORMER_RMSD>
0.6

> <PUBCHEM_COORDINATE_TYPE>
2
5
10

> <PUBCHEM_EFFECTIVE_ROTOR_COUNT>
3

> <PUBCHEM_FEATURE_SELFOVERLAP>
40.603

> <PUBCHEM_HEAVY_ATOM_COUNT>
21

> <PUBCHEM_ISOTOPIC_ATOM_COUNT>
0

> <PUBCHEM_MMFF94_ENERGY>
64.2753

> <PUBCHEM_MMFF94_PARTIAL_CHARGES>
33
1 -0.53
10 0.08
11 0.47
12 -0.18
13 -0.15
14 -0.15
15 -0.14
16 0.08
17 -0.15
18 -0.15
19 0.08
2 -0.53
20 0.08
21 -0.15
22 0.15
23 0.15
24 0.15
25 0.15
26 0.15
27 0.15
28 0.15
29 0.45
3 -0.53
30 0.45
31 0.45
32 0.45
33 0.45
4 -0.57
5 -0.53
6 -0.53
7 0.09
8 0.03
9 0.08

> <PUBCHEM_PHARMACOPHORE_FEATURES>
8
1 1 donor
1 2 donor
1 3 donor
1 4 acceptor
1 5 donor
1 6 donor
6 7 9 10 13 14 16 rings
6 8 17 18 19 20 21 rings

> <PUBCHEM_SHAPE_FINGERPRINT>
10354089 29 15647055962863379356
10498660 4 18409166571734966337
10670039 82 18187090503523699260
10693767 8 15769230345347497772
11128504 68 15052012385697304168
12236239 1 17458059374065161019
12596602 18 16805323301410188273
12633257 1 13695875865227494960
12730499 353 17846501460755669622
13533116 47 14346068664662097273
13631057 29 17024036046148264507
13668630 136 14405183971743557117
14251718 22 18341615931957182527
14341114 176 12540699223596340054
14341114 328 16732699467373403424
14528608 73 18409164420145832797
14576447 43 15195576680404718900
15183329 4 15051737439704120369
15188451 53 7925618974415012737
15348495 7 11747230069069120741
15475509 35 10231212364867802796
15537594 2 13542471942537529285
15885798 251 10303815380005489171
15961568 22 18334297591153556516
17844677 252 16917352532880084561
1813 80 13398631653716814427
19377110 9 17022629680497038145
200 152 15698007327062123866
20511986 3 17168129174680769333
20645477 70 17060066921409036366
21637258 2 13182750195736374556
221357 26 17418375770352246080
22224240 67 13840264845032241344
22289505 5 17988923349458989624
22950370 63 12319740267039760402
23522609 53 12246846060802589131
23557571 272 18342461460788835407
23559900 14 18339642243791991566
23596394 208 17704075062209945662
23622692 88 14851605492662213210
2767999 5 17458344156288041533
2838139 119 17975141143636993220
300161 21 17603583011404619541
3060560 45 17060338535551843500
341906 21 18187076235294136337
3472631 163 18187088398884047188
34797466 226 18201166541244231381
3545911 37 17988926699248357831
4325135 7 18410009970605374967
46194498 28 17775290490813800900
474 4 16950569895234686338
5104073 3 18114181866258592659
5281201 14 17418097585314988168
53794403 172 18118969328137587252
542803 24 17458344139218870347
5924683 9 12974187219408422329
67856867 119 18115017494389359403
7808743 9 18261111928223043648
7970288 3 11959732655183457364
960060 61 15410890760389214953

> <PUBCHEM_SHAPE_MULTIPOLES>
396.95
14.65
1.63
1.33
8.1
0.02
0.11
-5.4
-3.4
0.73
-0.02
-1.99
0.11
0.57

> <PUBCHEM_SHAPE_SELFOVERLAP>
863.235

> <PUBCHEM_SHAPE_VOLUME>
216.1

> <RelativeEnergy>
2.7787

> <StereoisomerIndex>
2

> <TautomerIndex>
1

> <POSE_NUMBER>
1

> <LibDockScore>
71.8397

> <HotSpots>
8.61,-2.33,-5.66,P,54,5
7.21,1.27,-2.85,A,46,12
7.61,1.27,1.95,A,80,13

> <-In-Situ Starting Energy>
-634.031998

> <-In-Situ Final Energy>
-61.1847311

> <In-Situ Gradient>
0.0008285707998

$$$$
44398561
  SciTegic09142310043D

 74 79  0  0  0  0            999 V2000
   14.9234    0.7987  -13.1731 O   0  0  0  1  0  0
   15.3022   -3.6507  -14.9042 O   0  0  0  1  0  0
    9.7809    1.2452  -12.4596 O   0  5  0  1  0  0
   10.9224   -0.5571  -12.0687 O   0  0  0  1  0  0
   13.6690   -2.1720  -14.3632 N   0  0  0  1  0  0
   12.7726    0.3610  -13.8072 N   0  0  0  1  0  0
   16.2596    2.3944  -17.0071 N   0  0  0  1  0  0
   11.3757    5.5616  -11.4433 N   0  0  0  1  0  0
   12.0991   -4.8031  -14.1581 N   0  0  0  1  0  0
   13.3396   -8.5300  -15.5152 N   0  0  0  1  0  0
   14.4942   -1.0140  -14.7160 C   0  0  1  1  0  0
   14.3156   -0.6682  -16.1998 C   0  0  0  1  0  0
   15.3100    0.3888  -16.6407 C   0  0  0  1  0  0
   12.1370    1.3086  -12.9127 C   0  0  1  1  0  0
   13.3963   -4.4548  -13.6168 C   0  0  1  1  0  0
   11.9273    2.6415  -13.6673 C   0  0  0  1  0  0
   14.0992    0.1561  -13.8119 C   0  0  0  1  0  0
   14.2570   -5.7081  -13.3153 C   0  0  0  1  0  0
   16.5498    0.1801  -17.3453 C   0  0  0  1  0  0
   11.9929    3.8158  -12.7146 C   0  0  0  1  0  0
   14.2125   -3.3980  -14.4076 C   0  0  0  1  0  0
   14.1378   -6.7604  -14.3980 C   0  0  0  1  0  0
   17.1174    1.4571  -17.5695 C   0  0  0  1  0  0
   15.1948    1.7694  -16.4466 C   0  0  0  1  0  0
   13.1722    4.3494  -12.0796 C   0  0  0  1  0  0
   14.9732   -6.9798  -15.5555 C   0  0  0  1  0  0
   12.7494    5.4297  -11.2729 C   0  0  0  1  0  0
   10.9169    4.5934  -12.2785 C   0  0  0  1  0  0
   14.4019   -8.0605  -16.2695 C   0  0  0  1  0  0
   13.1421   -7.7312  -14.4509 C   0  0  0  1  0  0
   17.1909   -0.9449  -17.7895 C   0  0  0  1  0  0
   10.8432    0.6226  -12.4310 C   0  0  0  1  0  0
   18.3052    1.5683  -18.2402 C   0  0  0  1  0  0
   14.4962    4.0018  -12.1232 C   0  0  0  1  0  0
   16.0907   -6.3616  -16.0445 C   0  0  0  1  0  0
   18.4032   -0.8346  -18.4716 C   0  0  0  1  0  0
   13.6631    6.1139  -10.5199 C   0  0  0  1  0  0
   14.9219   -8.4478  -17.4742 C   0  0  0  1  0  0
   18.9611    0.4246  -18.6981 C   0  0  0  1  0  0
   15.4347    4.7128  -11.3746 C   0  0  0  1  0  0
   16.6337   -6.7625  -17.2640 C   0  0  0  1  0  0
   15.0156    5.7690  -10.5661 C   0  0  0  1  0  0
   16.0471   -7.8028  -17.9832 C   0  0  0  1  0  0
   12.7596   -2.0846  -13.9545 H   0  0
   12.1561   -0.2123  -14.3423 H   0  0
   16.4036    3.3634  -17.0131 H   0  0
   10.8104    6.2147  -10.9804 H   0  0
   11.6654   -5.4964  -13.5563 H   0  0
   12.3409   -5.2859  -15.0120 H   0  0
   12.7640   -9.2895  -15.7303 H   0  0
   15.5382   -1.2528  -14.5009 H   0  0
   13.3092   -0.3028  -16.3777 H   0  0
   14.4374   -1.5617  -16.8133 H   0  0
   12.7904    1.4388  -12.0472 H   0  0
   13.1220   -3.9477  -12.7037 H   0  0
   10.9807    2.6538  -14.2067 H   0  0
   12.7107    2.7803  -14.4115 H   0  0
   13.9171   -6.1549  -12.3819 H   0  0
   15.3100   -5.4655  -13.1703 H   0  0
   14.3795    2.2571  -15.9325 H   0  0
    9.8870    4.4340  -12.5670 H   0  0
   12.3382   -7.8311  -13.7458 H   0  0
   16.7512   -1.9155  -17.6076 H   0  0
   18.7335    2.5435  -18.4142 H   0  0
   14.8108    3.1714  -12.7383 H   0  0
   16.5497   -5.5570  -15.4899 H   0  0
   18.9081   -1.7227  -18.8236 H   0  0
   13.3304    6.9232   -9.8893 H   0  0
   14.4562   -9.2410  -18.0397 H   0  0
   19.8997    0.5136  -19.2259 H   0  0
   16.4809    4.4401  -11.4179 H   0  0
   17.5249   -6.2814  -17.6429 H   0  0
   15.7383    6.3171   -9.9785 H   0  0
   16.4743   -8.1014  -18.9298 H   0  0
  1 17  2  0
  2 21  2  0
  3 32  1  0
  4 32  2  0
  5 11  1  0
  5 21  1  0
  6 14  1  0
  6 17  1  0
  7 23  1  0
  7 24  1  0
  8 27  1  0
  8 28  1  0
  9 15  1  0
 10 29  1  0
 10 30  1  0
 11 12  1  0
 11 17  1  0
 12 13  1  0
 13 19  1  0
 13 24  2  0
 14 16  1  0
 14 32  1  0
 15 18  1  0
 15 21  1  0
 16 20  1  0
 18 22  1  0
 19 23  1  0
 19 31  2  0
 20 25  1  0
 20 28  2  0
 22 26  1  0
 22 30  2  0
 23 33  2  0
 25 27  1  0
 25 34  2  0
 26 29  1  0
 26 35  2  0
 27 37  2  0
 29 38  2  0
 31 36  1  0
 33 39  1  0
 34 40  1  0
 35 41  1  0
 36 39  2  0
 37 42  1  0
 38 43  1  0
 40 42  2  0
 41 43  2  0
  5 44  1  0
  6 45  1  0
  7 46  1  0
  8 47  1  0
  9 48  1  0
  9 49  1  0
 10 50  1  0
 11 51  1  0
 12 52  1  0
 12 53  1  0
 14 54  1  0
 15 55  1  0
 16 56  1  0
 16 57  1  0
 18 58  1  0
 18 59  1  0
 24 60  1  0
 28 61  1  0
 30 62  1  0
 31 63  1  0
 33 64  1  0
 34 65  1  0
 35 66  1  0
 36 67  1  0
 37 68  1  0
 38 69  1  0
 39 70  1  0
 40 71  1  0
 41 72  1  0
 42 73  1  0
 43 74  1  0
M  CHG  1   3  -1
M  END
> <Name>
44398561

> <Binding Energy>
-94.5609

> <Ligand Energy>
-36.0315

> <Protein Energy>
-7801.1566

> <Complex Energy>
-7931.7491

> <Complex Entropy>
-31.4952

> <Protein Entropy>
-31.4717

> <Ligand Entropy>
-21.2913

> <Entropic Energy>
21.2678

> <AbsoluteEnergy>
251.671

> <ConfNumber>
120

> <Ionization pH>
7.27_DDDDD

> <IonizationIndex>
2

> <MOL_NUMBER>
64

> <NumberOfIonizations>
2

> <NumberOfStereoisomers>
1

> <NumberOfTautomers>
1

> <PUBCHEM_ATOM_DEF_STEREO_COUNT>
3

> <PUBCHEM_ATOM_UDEF_STEREO_COUNT>
0

> <PUBCHEM_BOND_DEF_STEREO_COUNT>
0

> <PUBCHEM_BOND_UDEF_STEREO_COUNT>
0

> <PUBCHEM_CACTVS_TAUTO_COUNT>
4

> <PUBCHEM_COMPONENT_COUNT>
1

> <PUBCHEM_COMPOUND_CID>
44398561

> <PUBCHEM_CONFORMER_DIVERSEORDER>
1
9
76
91
45
166
242
215
80
209
86
184
142
47
232
178
72
116
261
95
119
177
171
205
213
127
194
19
224
143
230
189
34
17
162
60
54
212
159
106
135
195
218
3
146
196
77
240
55
198
103
263
190
150
26
27
191
234
98
168
252
105
172
71
173
18
39
137
148
122
63
249
176
151
133
192
25
208
185
64
266
138
264
109
244
180
43
118
193
94
68
41
24
229
121
110
174
197
35
92
188
182
132
59
187
243
89
83
167
37
245
214
42
250
82
131
49
160
113
96
161
254
123
147
51
170
246
211
210
216
125
149
204
104
154
175
199
206
183
32
129
33
128
238
227
81
97
62
61
112
44
265
93
221
23
226
53
48
115
136
57
207
222
84
141
85
69
120
78
73
29
36
202
165
203
256
56
164
179
236
88
217
124
100
260
66
117
140
258
28
15
22
14
139
228
186
12
65
241
157
130
50
30
269
13
257
153
75
52
152
239
21
40
101
237
7
145
67
126
99
10
90
169
268
163
102
223
87
134
251
5
181
16
156
74
2
233
200
70
271
247
219
201
144
235
267
46
262
11
111
225
231
79
107
253
220
58
114
20
6
108
158
270
248
38
155
259
4
8
255
31

> <PUBCHEM_CONFORMER_ID>
02A577E100000001

> <PUBCHEM_CONFORMER_RMSD>
1.2

> <PUBCHEM_COORDINATE_TYPE>
2
5
10

> <PUBCHEM_EFFECTIVE_ROTOR_COUNT>
13

> <PUBCHEM_FEATURE_SELFOVERLAP>
106.914

> <PUBCHEM_HEAVY_ATOM_COUNT>
43

> <PUBCHEM_ISOTOPIC_ATOM_COUNT>
0

> <PUBCHEM_MMFF94_ENERGY>
71.7774

> <PUBCHEM_MMFF94_PARTIAL_CHARGES>
63
1 -0.57
10 0.03
11 0.36
12 0.18
13 -0.18
14 0.36
15 0.33
16 0.18
17 0.57
18 0.18
2 -0.57
20 -0.18
21 0.57
22 -0.18
23 -0.15
24 -0.3
27 -0.15
28 -0.3
29 -0.15
3 -0.65
30 -0.3
31 -0.15
32 0.66
33 -0.15
34 -0.15
35 -0.15
36 -0.15
37 -0.15
38 -0.15
39 -0.15
4 -0.57
40 -0.15
41 -0.15
42 -0.15
43 -0.15
5 -0.73
51 0.37
54 0.37
55 0.15
56 0.27
57 0.15
58 0.15
59 0.15
6 -0.73
60 0.27
61 0.36
62 0.36
63 0.27
64 0.15
65 0.15
66 0.15
67 0.15
68 0.15
69 0.15
7 0.03
70 0.15
71 0.15
72 0.15
73 0.15
74 0.15
75 0.5
8 0.03
9 -0.99

> <PUBCHEM_PHARMACOPHORE_FEATURES>
21
1 1 acceptor
1 10 cation
1 10 donor
1 2 acceptor
1 3 acceptor
1 4 acceptor
1 5 donor
1 6 donor
1 7 cation
1 7 donor
1 8 cation
1 8 donor
1 9 cation
1 9 donor
3 3 4 32 anion
5 10 22 26 29 30 rings
5 7 13 19 23 24 rings
5 8 20 25 27 28 rings
6 19 23 31 33 36 39 rings
6 25 27 34 37 40 42 rings
6 26 29 35 38 41 43 rings

> <PUBCHEM_SHAPE_FINGERPRINT>
10290309 65 18268441139584972758
12156800 1 17976781412504467459
12788726 201 18336260258363898826
13560911 43 17835520801196183051
15200665 1 18264763268662797972
16993438 75 18408319969250841745
19246450 95 18192975043002104874
19319366 153 17982435014994388077
20764821 26 18268419157899673355
21792964 463 17605564451976276932
25223398 141 18334573555834769476
4409770 3 18409160022204992221
550186 72 18339083808366799640
6036956 94 18334017215392561101

> <PUBCHEM_SHAPE_MULTIPOLES>
831.56
11.43
8.8
2.11
17.83
1.49
-0.38
-4.55
0.65
-10.15
2.05
-2.28
-0.65
1.74

> <PUBCHEM_SHAPE_SELFOVERLAP>
1836.797

> <PUBCHEM_SHAPE_VOLUME>
446

> <RelativeEnergy>
9.13424

> <StereoisomerIndex>
1

> <TautomerIndex>
1

> <POSE_NUMBER>
5

> <LibDockScore>
133.3027

> <HotSpots>
11.21,-4.73,-14.26,P,22,9
15.61,-6.73,-13.65,A,23,35
16.61,6.47,-11.46,A,30,42

> <-In-Situ Starting Energy>
-147.059189

> <-In-Situ Final Energy>
61.8955532

> <In-Situ Gradient>
0.03553993143

$$$$
44457658
  SciTegic09142310043D

 27 27  0  0  0  0            999 V2000
    6.9216   12.5386    0.6645 O   0  0  0  1  0  0
    9.2743    8.8915   -6.0213 O   0  0  0  1  0  0
    8.8085    9.2131   -4.7354 N   0  0  0  1  0  0
    6.9450   10.5332   -0.8581 C   0  0  1  1  0  0
    5.8279    9.6494   -0.2898 C   0  0  0  1  0  0
    7.2465   10.3383   -2.3595 C   0  0  0  1  0  0
    5.8047    8.2262   -0.8278 C   0  0  0  1  0  0
    6.6063   12.0008   -0.5919 C   0  0  0  1  0  0
    7.1488    8.9271   -2.8598 C   0  0  0  1  0  0
    6.5603    7.9913   -2.1007 C   0  0  0  1  0  0
    7.8118    8.5283   -4.1341 C   0  0  0  1  0  0
    6.5260   13.8867    0.8105 C   0  0  0  1  0  0
    9.6547    8.0217   -5.9884 H   0  0
    7.8495   10.2436   -0.3454 H   0  0
    5.9427    9.6203    0.7901 H   0  0
    4.8521   10.1006   -0.4318 H   0  0
    8.2591   10.6963   -2.5270 H   0  0
    6.5803   10.9535   -2.9646 H   0  0
    4.7867    7.9376   -1.0398 H   0  0
    6.1281    7.5540   -0.0389 H   0  0
    6.9771   12.6521   -1.3858 H   0  0
    5.5512   12.0159   -0.6187 H   0  0
    6.6741    6.9474   -2.3087 H   0  0
    7.4947    7.6326   -4.6586 H   0  0
    5.4698   13.9853    1.0418 H   0  0
    6.6875   14.4153   -0.1254 H   0  0
    7.0956   14.3639    1.6085 H   0  0
  1  8  1  0
  1 12  1  0
  2  3  1  0
  3 11  2  0
  4  5  1  0
  4  6  1  0
  4  8  1  0
  5  7  1  0
  6  9  1  0
  7 10  1  0
  9 10  2  0
  9 11  1  0
  2 13  1  0
  4 14  1  0
  5 15  1  0
  5 16  1  0
  6 17  1  0
  6 18  1  0
  7 19  1  0
  7 20  1  0
  8 21  1  0
  8 22  1  0
 10 23  1  0
 11 24  1  0
 12 25  1  0
 12 26  1  0
 12 27  1  0
M  END
> <Name>
44457658

> <Binding Energy>
-14.8358

> <Ligand Energy>
35.4074

> <Protein Energy>
-7801.1566

> <Complex Energy>
-7780.5851

> <Complex Entropy>
-31.4768

> <Protein Entropy>
-31.4717

> <Ligand Entropy>
-18.0536

> <Entropic Energy>
18.0484

> <AbsoluteEnergy>
10.5035

> <ConfNumber>
2

> <Ionization pH>
7.5

> <IonizationIndex>
1

> <MOL_NUMBER>
65

> <NumberOfIonizations>
1

> <NumberOfStereoisomers>
1

> <NumberOfTautomers>
1

> <PUBCHEM_ATOM_DEF_STEREO_COUNT>
0

> <PUBCHEM_ATOM_UDEF_STEREO_COUNT>
1

> <PUBCHEM_BOND_DEF_STEREO_COUNT>
1

> <PUBCHEM_BOND_UDEF_STEREO_COUNT>
0

> <PUBCHEM_CACTVS_TAUTO_COUNT>
2

> <PUBCHEM_COMPONENT_COUNT>
1

> <PUBCHEM_COMPOUND_CID>
44457658

> <PUBCHEM_CONFORMER_DIVERSEORDER>
1
10
16
15
11
18
7
6
9
5
17
19
12
4
13
14
2
3
8

> <PUBCHEM_CONFORMER_ID>
02A65EBA00000001

> <PUBCHEM_CONFORMER_RMSD>
0.6

> <PUBCHEM_COORDINATE_TYPE>
2
5
10

> <PUBCHEM_EFFECTIVE_ROTOR_COUNT>
3.8

> <PUBCHEM_FEATURE_SELFOVERLAP>
20.297

> <PUBCHEM_HEAVY_ATOM_COUNT>
12

> <PUBCHEM_ISOTOPIC_ATOM_COUNT>
0

> <PUBCHEM_MMFF94_ENERGY>
14.4723

> <PUBCHEM_MMFF94_PARTIAL_CHARGES>
13
1 -0.56
10 -0.29
11 0.38
12 0.28
2 -0.34
22 0.15
23 0.06
27 0.4
3 -0.51
6 0.14
7 0.14
8 0.28
9 -0.12

> <PUBCHEM_PHARMACOPHORE_FEATURES>
4
1 1 acceptor
1 2 anion
1 3 acceptor
6 4 5 6 7 9 10 rings

> <PUBCHEM_SHAPE_FINGERPRINT>
1 1 18265896860792809623
10149128 76 18411138026042396436
13380536 305 18195533584098061255
13618510 140 18411139112659033993
13839132 238 18340775939417625374
14123255 52 18410573989478560648
14325111 11 18410575093253013512
14648413 74 18193280685052258251
14897335 6 18411131437552008372
15775835 57 18335703870735396464
16945 1 18052812834648937834
17134986 127 18410858715861117492
1741750 31 18341613754277148056
18342897 96 18271523199273057134
20510252 161 18125728026202216322
20645477 56 18197506318817766840
20653085 51 18411146843890122378
20671657 1 18266744584321056878
21040471 1 18411978065869428666
21499 59 18410566267543821341
21524375 3 18409722963162277442
23402539 116 17911233145956304903
23559900 14 18202288039854275440
2748010 2 18410304604813617919
305870 269 18334855017751822794
3071541 12 18268151950730810982
53812653 8 18338793549754064187
7364860 26 18196653986573222582

> <PUBCHEM_SHAPE_MULTIPOLES>
230.23
5.46
2.85
0.63
1.58
0.62
-0.01
-5.83
0.02
-0.61
0.01
0.07
0.06
-0.23

> <PUBCHEM_SHAPE_SELFOVERLAP>
450.911

> <PUBCHEM_SHAPE_VOLUME>
137.6

> <RelativeEnergy>
0.119071

> <StereoisomerIndex>
1

> <TautomerIndex>
1

> <POSE_NUMBER>
1

> <LibDockScore>
93.16

> <HotSpots>
6.61,11.87,-1.46,A,53,6
5.81,9.67,0.14,A,68,7
7.21,14.67,2.35,A,81,12

> <-In-Situ Starting Energy>
-2848.09882

> <-In-Situ Final Energy>
-18.5885596

> <In-Situ Gradient>
0.0009334754464

$$$$
44457711
  SciTegic09142310043D

 34 34  0  0  0  0            999 V2000
    7.3900    0.3832   -1.6599 O   0  0  0  1  0  0
    4.0278    1.7159   -1.1364 O   0  0  0  1  0  0
    7.2379    5.8696    4.3297 O   0  0  0  1  0  0
    6.9555    4.7749    3.5194 N   0  0  0  1  0  0
    6.5761    0.5387    0.5603 C   0  0  1  1  0  0
    6.4479    1.1054   -0.8829 C   0  0  2  1  0  0
    7.9988    0.5091    1.1370 C   0  0  0  1  0  0
    5.6074    1.1568    1.5759 C   0  0  0  1  0  0
    8.5222    1.8536    1.6812 C   0  0  0  1  0  0
    5.0409    0.7590   -1.4398 C   0  0  0  1  0  0
    6.7666    2.6131   -0.9626 C   0  0  0  1  0  0
    6.1707    2.2970    2.3611 C   0  0  0  1  0  0
    7.4640    2.6547    2.3879 C   0  0  0  1  0  0
    7.8414    3.8058    3.2278 C   0  0  0  1  0  0
    7.7153    0.8378   -2.9619 C   0  0  0  1  0  0
    4.1665    2.4944   -1.6863 H   0  0
    7.9107    6.4018    3.9334 H   0  0
    6.2945   -0.5118    0.4675 H   0  0
    8.0129   -0.2103    1.9571 H   0  0
    8.6621    0.1042    0.3841 H   0  0
    4.6848    1.4778    1.1022 H   0  0
    5.3525    0.3884    2.3028 H   0  0
    8.9223    2.4560    0.8720 H   0  0
    9.3763    1.6935    2.3338 H   0  0
    4.7141   -0.1985   -1.0349 H   0  0
    5.0795    0.5671   -2.5143 H   0  0
    6.5749    3.0159   -1.9529 H   0  0
    7.8197    2.8039   -0.7868 H   0  0
    6.1925    3.1971   -0.2449 H   0  0
    5.4237    2.8942    2.8403 H   0  0
    8.8469    3.9356    3.6226 H   0  0
    8.2948    1.7595   -2.9155 H   0  0
    6.8280    1.0114   -3.5683 H   0  0
    8.3225    0.0882   -3.4674 H   0  0
  1  6  1  0
  1 15  1  0
  2 10  1  0
  3  4  1  0
  4 14  2  0
  5  6  1  0
  5  7  1  0
  5  8  1  0
  6 10  1  0
  6 11  1  0
  7  9  1  0
  8 12  1  0
  9 13  1  0
 12 13  2  0
 13 14  1  0
  2 16  1  0
  3 17  1  0
  5 18  1  0
  7 19  1  0
  7 20  1  0
  8 21  1  0
  8 22  1  0
  9 23  1  0
  9 24  1  0
 10 25  1  0
 10 26  1  0
 11 27  1  0
 11 28  1  0
 11 29  1  0
 12 30  1  0
 14 31  1  0
 15 32  1  0
 15 33  1  0
 15 34  1  0
M  END
> <Name>
44457711

> <Binding Energy>
-70.7006

> <Ligand Energy>
36.1728

> <Protein Energy>
-7801.1566

> <Complex Energy>
-7835.6845

> <Complex Entropy>
-31.4773

> <Protein Entropy>
-31.4717

> <Ligand Entropy>
-18.4798

> <Entropic Energy>
18.4741

> <AbsoluteEnergy>
39.5568

> <ConfNumber>
30

> <Ionization pH>
7.5

> <IonizationIndex>
1

> <MOL_NUMBER>
66

> <NumberOfIonizations>
1

> <NumberOfStereoisomers>
1

> <NumberOfTautomers>
1

> <PUBCHEM_ATOM_DEF_STEREO_COUNT>
0

> <PUBCHEM_ATOM_UDEF_STEREO_COUNT>
2

> <PUBCHEM_BOND_DEF_STEREO_COUNT>
1

> <PUBCHEM_BOND_UDEF_STEREO_COUNT>
0

> <PUBCHEM_CACTVS_TAUTO_COUNT>
2

> <PUBCHEM_COMPONENT_COUNT>
1

> <PUBCHEM_COMPOUND_CID>
44457711

> <PUBCHEM_CONFORMER_DIVERSEORDER>
1
29
16
38
39
35
43
27
23
46
8
3
20
11
31
9
28
2
17
40
36
48
32
30
18
49
12
4
37
42
21
47
10
41
7
45
14
13
44
33
6
24
5
34
22
26
25
19
15

> <PUBCHEM_CONFORMER_ID>
02A65EEF00000001

> <PUBCHEM_CONFORMER_RMSD>
0.6

> <PUBCHEM_COORDINATE_TYPE>
2
5
10

> <PUBCHEM_EFFECTIVE_ROTOR_COUNT>
4.8

> <PUBCHEM_FEATURE_SELFOVERLAP>
30.446

> <PUBCHEM_HEAVY_ATOM_COUNT>
15

> <PUBCHEM_ISOTOPIC_ATOM_COUNT>
0

> <PUBCHEM_MMFF94_ENERGY>
39.8378

> <PUBCHEM_MMFF94_PARTIAL_CHARGES>
16
1 -0.56
10 0.28
12 -0.29
13 -0.12
14 0.38
15 0.28
2 -0.68
28 0.15
29 0.06
3 -0.34
33 0.4
34 0.4
4 -0.51
6 0.28
8 0.14
9 0.14

> <PUBCHEM_PHARMACOPHORE_FEATURES>
6
1 1 acceptor
1 2 acceptor
1 2 donor
1 3 anion
1 4 acceptor
6 5 7 8 9 12 13 rings

> <PUBCHEM_SHAPE_FINGERPRINT>
11471102 20 18343304773085138860
11543360 7 17631725093005873957
12932764 1 18113332024657417602
13296908 3 18187932836419486379
13538477 17 16732989764239378746
13571099 22 17918280848144346950
13705890 14 17418093234555380247
13760787 19 16225774029565801587
14115302 16 17531252751283892290
14178342 30 17532927435914694738
14344429 50 18334570240187802728
14911166 2 18334865995329723727
14993402 34 17749117677075577247
15219456 202 18340774857127921506
15536298 74 18410574024048951297
15775835 57 18040152933270319034
16945 1 18410009901432418730
18186145 218 18334008402383036749
18522853 295 18260264127248332426
19026448 5 17060626603007980235
19784866 240 16414930642743403814
200 152 17418376861321054295
20201158 50 18342746199877751422
20559304 39 17968929795696546578
20645476 183 16950578712781933314
20645477 70 18130792247794962127
212847 35 17822007579893337605
23402539 116 18339067263640182750
23402655 69 18272090513024124725
23557571 272 18192438690857286066
23559900 14 18343022216003503406
2748010 2 18117003384118963194
3060560 45 18342175540178699598
3286 77 18187634757146480712
4047638 21 18409729577506696585
449060 62 18186519925217482937
495365 180 17988916829561295968
4990 188 18413111641146378695
5104073 3 18333730247774749329
522135 26 17603303730497034994
633830 44 18411979161549838871
69090 78 18343297093905400263
7364860 26 18335132073518682378

> <PUBCHEM_SHAPE_MULTIPOLES>
286.1
7.98
1.55
1.04
8.66
0.41
0.07
0.23
1.19
-0.97
-0.28
-1.11
-0.15
0.61

> <PUBCHEM_SHAPE_SELFOVERLAP>
572.348

> <PUBCHEM_SHAPE_VOLUME>
167.5

> <RelativeEnergy>
11.8997

> <StereoisomerIndex>
1

> <TautomerIndex>
1

> <POSE_NUMBER>
1

> <LibDockScore>
88.3437

> <HotSpots>
4.81,0.47,-1.05,A,56,10
7.21,3.07,2.94,A,85,14
7.21,1.27,-2.85,A,46,15

> <-In-Situ Starting Energy>
-643.810564

> <-In-Situ Final Energy>
8.9115146

> <In-Situ Gradient>
0.0009481412706

$$$$
44457736
  SciTegic09142310043D

 37 37  0  0  0  0            999 V2000
    6.8854    0.5468    3.1316 O   0  0  0  1  0  0
    8.3538    2.6188    2.8792 O   0  0  0  1  0  0
    9.1243    3.7494   -3.9784 O   0  0  0  1  0  0
    8.5580    2.6924   -3.2564 N   0  0  0  1  0  0
    6.0726    0.4319    0.8061 C   0  0  1  1  0  0
    6.6342    1.3176    1.9697 C   0  0  2  1  0  0
    5.0164    1.1212   -0.0748 C   0  0  0  1  0  0
    7.1205   -0.2121   -0.1194 C   0  0  0  1  0  0
    5.5973    2.2240   -0.9480 C   0  0  0  1  0  0
    8.0156    1.9199    1.7030 C   0  0  0  1  0  0
    5.6860    2.4701    2.3520 C   0  0  0  1  0  0
    7.5547    0.7139   -1.2286 C   0  0  0  1  0  0
    6.9486    1.8837   -1.5043 C   0  0  0  1  0  0
    7.6049    2.9116   -2.3330 C   0  0  0  1  0  0
    5.8477   -0.1746    3.7572 C   0  0  0  1  0  0
    9.6910    3.0297    2.9880 C   0  0  0  1  0  0
    8.4040    4.2486   -4.3361 H   0  0
    5.5639   -0.4025    1.2716 H   0  0
    4.5859    0.3623   -0.7308 H   0  0
    4.1963    1.5361    0.5020 H   0  0
    7.9808   -0.5659    0.4480 H   0  0
    6.6797   -1.1000   -0.5725 H   0  0
    5.6640    3.1718   -0.4244 H   0  0
    4.8948    2.3835   -1.7615 H   0  0
    8.0152    2.6041    0.8551 H   0  0
    8.7556    1.1422    1.5198 H   0  0
    5.9621    3.0000    3.2574 H   0  0
    4.6559    2.1417    2.4637 H   0  0
    5.7353    3.2385    1.5962 H   0  0
    8.4567    0.4313   -1.7267 H   0  0
    7.2881    3.9454   -2.2111 H   0  0
    5.6954   -1.1115    3.2410 H   0  0
    4.9259    0.3960    3.7850 H   0  0
    6.1180   -0.4240    4.7803 H   0  0
   10.0764    3.4012    2.0439 H   0  0
   10.3298    2.2075    3.3044 H   0  0
    9.7297    3.8258    3.7256 H   0  0
  1  6  1  0
  1 15  1  0
  2 10  1  0
  2 16  1  0
  3  4  1  0
  4 14  2  0
  5  6  1  0
  5  7  1  0
  5  8  1  0
  6 10  1  0
  6 11  1  0
  7  9  1  0
  8 12  1  0
  9 13  1  0
 12 13  2  0
 13 14  1  0
  3 17  1  0
  5 18  1  0
  7 19  1  0
  7 20  1  0
  8 21  1  0
  8 22  1  0
  9 23  1  0
  9 24  1  0
 10 25  1  0
 10 26  1  0
 11 27  1  0
 11 28  1  0
 11 29  1  0
 12 30  1  0
 14 31  1  0
 15 32  1  0
 15 33  1  0
 15 34  1  0
 16 35  1  0
 16 36  1  0
 16 37  1  0
M  END
> <Name>
44457736

> <Binding Energy>
-41.3312

> <Ligand Energy>
40.2124

> <Protein Energy>
-7801.1566

> <Complex Energy>
-7802.2754

> <Complex Entropy>
-31.4777

> <Protein Entropy>
-31.4717

> <Ligand Entropy>
-18.6517

> <Entropic Energy>
18.6456

> <AbsoluteEnergy>
46.4394

> <ConfNumber>
71

> <Ionization pH>
7.5

> <IonizationIndex>
1

> <MOL_NUMBER>
67

> <NumberOfIonizations>
1

> <NumberOfStereoisomers>
1

> <NumberOfTautomers>
1

> <PUBCHEM_ATOM_DEF_STEREO_COUNT>
0

> <PUBCHEM_ATOM_UDEF_STEREO_COUNT>
2

> <PUBCHEM_BOND_DEF_STEREO_COUNT>
1

> <PUBCHEM_BOND_UDEF_STEREO_COUNT>
0

> <PUBCHEM_CACTVS_TAUTO_COUNT>
2

> <PUBCHEM_COMPONENT_COUNT>
1

> <PUBCHEM_COMPOUND_CID>
44457736

> <PUBCHEM_CONFORMER_DIVERSEORDER>
1
29
11
30
43
12
27
48
32
39
20
38
25
47
21
46
14
16
3
15
44
23
9
37
18
8
31
24
10
5
33
17
35
19
22
36
4
7
40
6
34
2
13
45
42
26
41
28

> <PUBCHEM_CONFORMER_ID>
02A65F0800000001

> <PUBCHEM_CONFORMER_RMSD>
0.6

> <PUBCHEM_COORDINATE_TYPE>
2
5
10

> <PUBCHEM_EFFECTIVE_ROTOR_COUNT>
5.8

> <PUBCHEM_FEATURE_SELFOVERLAP>
25.373

> <PUBCHEM_HEAVY_ATOM_COUNT>
16

> <PUBCHEM_ISOTOPIC_ATOM_COUNT>
0

> <PUBCHEM_MMFF94_ENERGY>
44.9968

> <PUBCHEM_MMFF94_PARTIAL_CHARGES>
16
1 -0.56
10 0.28
12 -0.29
13 -0.12
14 0.38
15 0.28
16 0.28
2 -0.56
29 0.15
3 -0.34
30 0.06
37 0.4
4 -0.51
6 0.28
8 0.14
9 0.14

> <PUBCHEM_PHARMACOPHORE_FEATURES>
5
1 1 acceptor
1 2 acceptor
1 3 anion
1 4 acceptor
6 5 7 8 9 12 13 rings

> <PUBCHEM_SHAPE_FINGERPRINT>
10608611 8 18341049618743921796
10680689 15 18343865541385097462
11543360 7 11959718404961328170
122479 349 18266460897652505605
12403814 3 18342741857686725643
12532896 13 18118122464250599493
12932764 1 17988922283958862374
13214271 11 18409730664054320703
13675066 3 18343021103897176050
14178342 30 17822583719670661347
14289901 80 17968103044567211618
15219456 202 18270407091828514574
15279308 16 18411141298892073455
15309172 13 17703516566100907902
16945 1 18340204201623739935
1741750 31 18267304227218348969
17844478 74 18339089275679949035
18186145 218 17203327845042751402
19026448 5 17458067071221542142
200 152 17275097362660314879
20645477 56 18336268933760213741
20645477 70 17345758465230221542
21061003 4 17775006842335264425
21339142 126 18341894134295647991
21339142 149 17458072559688684505
21501502 16 18266165146062052263
2306618 200 18060702801377528713
23402539 116 18261106422217739295
23402655 69 17844234143547118485
23493267 7 18336261250105400058
23557571 272 18411708655619259636
23559900 14 17983574109832281470
25 1 17838335173369397589
27216 239 18411419505567424833
2748010 2 18129954355515245054
5104073 3 18409726228102145410
81228 2 18114760265267340689

> <PUBCHEM_SHAPE_MULTIPOLES>
306.68
8.04
2.24
1.03
10.5
1.49
0.03
1.75
0.86
-2.98
-0.19
-0.78
-0.38
0.9

> <PUBCHEM_SHAPE_SELFOVERLAP>
609.662

> <PUBCHEM_SHAPE_VOLUME>
181.2

> <RelativeEnergy>
17.6487

> <StereoisomerIndex>
1

> <TautomerIndex>
1

> <POSE_NUMBER>
1

> <LibDockScore>
87.6625

> <HotSpots>
4.81,0.47,-1.05,A,56,7
6.61,-0.93,-0.06,A,65,8
7.21,3.07,2.94,A,85,16

> <-In-Situ Starting Energy>
-529.390838

> <-In-Situ Final Energy>
-3.45090517

> <In-Situ Gradient>
0.0009221054634

$$$$
44457738
  DSViewer          3D                             0

 18 18  0  0  0  0  0  0  0  0999 V2000
    7.8243   -0.4734   -0.2781 O   0  0
    6.6027    4.6456    3.3783 O   0  0
    6.6492    3.3370    2.8912 N   0  0
    6.9778    0.5618    1.7111 C   0  0
    6.9741   -0.6889    0.8246 C   0  0
    6.9906    1.8351    0.9030 C   0  0
    7.3542    0.5066   -1.1818 C   0  0
    7.0898    1.7889   -0.4395 C   0  0
    6.8514    3.1508    1.5733 C   0  0
    6.2169    4.6358    4.2560 H   0  0
    6.1210    0.5409    2.3853 H   0  0
    7.8752    0.5396    2.3224 H   0  0
    7.3093   -1.5642    1.3821 H   0  0
    5.9692   -0.8971    0.4618 H   0  0
    8.1122    0.6708   -1.9468 H   0  0
    6.4496    0.1598   -1.6835 H   0  0
    7.0817    2.6780   -1.0446 H   0  0
    6.9257    4.0708    1.0005 H   0  0
  1  5  1  0  0  0
  1  7  1  0  0  0
  2  3  1  0  0  0
  3  9  2  0  0  0
  4  5  1  0  0  0
  4  6  1  0  0  0
  6  8  2  0  0  0
  6  9  1  0  0  0
  7  8  1  0  0  0
  2 10  1  0  0  0
  4 11  1  0  0  0
  4 12  1  0  0  0
  5 13  1  0  0  0
  5 14  1  0  0  0
  7 15  1  0  0  0
  7 16  1  0  0  0
  8 17  1  0  0  0
  9 18  1  0  0  0
M  END
> <Binding Energy>
-18.7069

> <Ligand Energy>
18.5199

> <Protein Energy>
-7801.16

> <Complex Energy>
-7801.34

> <Complex Entropy>
-31.4751

> <Protein Entropy>
-31.4717

> <Ligand Entropy>
-17.0314

> <Entropic Energy>
17.0281

> <AbsoluteEnergy>
10.9732

> <ConfNumber>
2

> <Ionization pH>
7.5

> <IonizationIndex>
1

> <MOL_NUMBER>
69

> <NumberOfIonizations>
1

> <NumberOfStereoisomers>
1

> <NumberOfTautomers>
1

> <PUBCHEM_ATOM_DEF_STEREO_COUNT>
0

> <PUBCHEM_ATOM_UDEF_STEREO_COUNT>
0

> <PUBCHEM_BOND_DEF_STEREO_COUNT>
1

> <PUBCHEM_BOND_UDEF_STEREO_COUNT>
0

> <PUBCHEM_CACTVS_TAUTO_COUNT>
2

> <PUBCHEM_COMPONENT_COUNT>
1

> <PUBCHEM_COMPOUND_CID>
44457738

> <PUBCHEM_CONFORMER_DIVERSEORDER>
1
2

> <PUBCHEM_CONFORMER_ID>
02A65F0A00000001

> <PUBCHEM_CONFORMER_RMSD>
0.4

> <PUBCHEM_COORDINATE_TYPE>
2
5
10

> <PUBCHEM_EFFECTIVE_ROTOR_COUNT>
1.8

> <PUBCHEM_FEATURE_SELFOVERLAP>
20.297

> <PUBCHEM_HEAVY_ATOM_COUNT>
9

> <PUBCHEM_ISOTOPIC_ATOM_COUNT>
0

> <PUBCHEM_MMFF94_ENERGY>
9.5317

> <PUBCHEM_MMFF94_PARTIAL_CHARGES>
12
1 -0.56
16 0.15
17 0.06
18 0.4
2 -0.34
3 -0.51
4 0.14
5 0.28
6 -0.12
7 0.42
8 -0.29
9 0.38

> <PUBCHEM_PHARMACOPHORE_FEATURES>
4
1 1 acceptor
1 2 anion
1 3 acceptor
6 1 4 5 6 7 8 rings

> <PUBCHEM_SHAPE_FINGERPRINT>
10857977 72 18340477975692083225
12897270 3 18412824689890926782
12932764 1 17385435514712525868
13024252 1 15068341211506704673
14325111 11 18411138004920974784
14390081 3 18343299258299710088
16714656 1 18411699893832890159
20871998 184 18201443639633767943
21040471 1 18266742376855364801
23235685 24 18411415073266670417
23552423 10 18115869766282204268
29004967 10 16271930410686320898
369184 2 16442781327761196097

> <PUBCHEM_SHAPE_MULTIPOLES>
168.5
4.3
1.35
0.61
3.63
0.05
0.01
0.05
-0.09
-0.75
0.06
-0.09
0.01
-0.04

> <PUBCHEM_SHAPE_SELFOVERLAP>
332.888

> <PUBCHEM_SHAPE_VOLUME>
100.5

> <RelativeEnergy>
0.830427

> <StereoisomerIndex>
1

> <TautomerIndex>
1

> <POSE_NUMBER>
1

> <LibDockScore>
59.3157

> <HotSpots>
6.61,-0.93,-0.06,A,65,5
4.81,0.47,-1.05,A,56,7
6.01,1.67,2.54,A,83,9

> <-In-Situ Starting Energy>
-59.428

> <-In-Situ Final Energy>
12.9337

> <In-Situ Gradient>
0.000632073

$$$$
44457739
  SciTegic09142310043D

 31 31  0  0  0  0            999 V2000
    5.0014   -0.3794   -1.1038 O   0  0  0  1  0  0
    8.1654   -1.8492    0.0546 O   0  0  0  1  0  0
    7.2673    5.8383    4.2771 O   0  0  0  1  0  0
    7.5797    4.5722    3.7842 N   0  0  0  1  0  0
    6.5039    0.7337    0.4026 C   0  0  1  1  0  0
    6.3690   -0.3034   -0.7265 C   0  0  1  1  0  0
    7.8289    1.5104    0.4289 C   0  0  0  1  0  0
    5.3346    1.6953    0.4301 C   0  0  0  1  0  0
    7.9806    2.3138    1.7211 C   0  0  0  1  0  0
    6.7665   -1.6819   -0.1092 C   0  0  0  1  0  0
    5.4876    2.5588    1.6257 C   0  0  0  1  0  0
    7.1623    0.2004   -1.9651 C   0  0  0  1  0  0
    6.6592    2.8676    2.1967 C   0  0  0  1  0  0
    6.5746    3.9260    3.1968 C   0  0  0  1  0  0
    4.9502   -0.9473   -1.8781 H   0  0
    8.3735   -2.7816    0.1880 H   0  0
    6.5992    5.7401    4.9490 H   0  0
    6.4511    0.2123    1.3593 H   0  0
    7.8936    2.1907   -0.4202 H   0  0
    8.6527    0.8090    0.3447 H   0  0
    4.3913    1.1866    0.4814 H   0  0
    5.2994    2.3094   -0.4706 H   0  0
    8.3971    1.6449    2.4634 H   0  0
    8.7129    3.1055    1.5914 H   0  0
    6.3430   -1.7638    0.8900 H   0  0
    6.3158   -2.5179   -0.6506 H   0  0
    4.5566    2.8263    2.0882 H   0  0
    6.9110    1.2393   -2.1791 H   0  0
    6.9708   -0.3291   -2.8957 H   0  0
    8.2342    0.1495   -1.7896 H   0  0
    5.5914    4.3262    3.4105 H   0  0
  1  6  1  0
  2 10  1  0
  3  4  1  0
  4 14  2  0
  5  6  1  0
  5  7  1  0
  5  8  1  0
  6 10  1  0
  6 12  1  0
  7  9  1  0
  8 11  1  0
  9 13  1  0
 11 13  2  0
 13 14  1  0
  1 15  1  0
  2 16  1  0
  3 17  1  0
  5 18  1  0
  7 19  1  0
  7 20  1  0
  8 21  1  0
  8 22  1  0
  9 23  1  0
  9 24  1  0
 10 25  1  0
 10 26  1  0
 11 27  1  0
 12 28  1  0
 12 29  1  0
 12 30  1  0
 14 31  1  0
M  END
> <Name>
44457739

> <Binding Energy>
-36.2344

> <Ligand Energy>
41.5601

> <Protein Energy>
-7801.1566

> <Complex Energy>
-7795.8309

> <Complex Entropy>
-31.477

> <Protein Entropy>
-31.4717

> <Ligand Entropy>
-18.3267

> <Entropic Energy>
18.3214

> <AbsoluteEnergy>
27.7667

> <ConfNumber>
21

> <Ionization pH>
7.5

> <IonizationIndex>
1

> <MOL_NUMBER>
70

> <NumberOfIonizations>
1

> <NumberOfStereoisomers>
1

> <NumberOfTautomers>
1

> <PUBCHEM_ATOM_DEF_STEREO_COUNT>
0

> <PUBCHEM_ATOM_UDEF_STEREO_COUNT>
2

> <PUBCHEM_BOND_DEF_STEREO_COUNT>
1

> <PUBCHEM_BOND_UDEF_STEREO_COUNT>
0

> <PUBCHEM_CACTVS_TAUTO_COUNT>
2

> <PUBCHEM_COMPONENT_COUNT>
1

> <PUBCHEM_COMPOUND_CID>
44457739

> <PUBCHEM_CONFORMER_DIVERSEORDER>
3
33
20
10
25
5
19
8
4
23
28
27
2
18
7
1
35
31
11
34
32
13
22
6
9
21
16
24
30
14
12
15
17
29
26

> <PUBCHEM_CONFORMER_ID>
02A65F0B00000003

> <PUBCHEM_CONFORMER_RMSD>
0.6

> <PUBCHEM_COORDINATE_TYPE>
2
5
10

> <PUBCHEM_EFFECTIVE_ROTOR_COUNT>
3.8

> <PUBCHEM_FEATURE_SELFOVERLAP>
35.527

> <PUBCHEM_HEAVY_ATOM_COUNT>
14

> <PUBCHEM_ISOTOPIC_ATOM_COUNT>
0

> <PUBCHEM_MMFF94_ENERGY>
27.4512

> <PUBCHEM_MMFF94_PARTIAL_CHARGES>
16
1 -0.68
10 0.28
11 -0.29
13 -0.12
14 0.38
2 -0.68
24 0.15
28 0.4
29 0.06
3 -0.34
30 0.4
31 0.4
4 -0.51
6 0.28
8 0.14
9 0.14

> <PUBCHEM_PHARMACOPHORE_FEATURES>
7
1 1 acceptor
1 1 donor
1 2 acceptor
1 2 donor
1 3 anion
1 4 acceptor
6 5 7 8 9 11 13 rings

> <PUBCHEM_SHAPE_FINGERPRINT>
11132069 177 18341608201179618824
11401426 45 18410288108049604948
11806522 49 18411415154707551375
12032990 46 18413392029396006566
12119455 92 14056715755836569754
124424 183 16877943840937413840
12932764 1 14117510996220322247
13288520 33 18343584044622353046
13380535 76 18408042922670717514
13581323 91 16702300169730254039
13690532 89 18409446994692264934
14325111 11 18409165476581148092
14911166 2 18408321111801806790
14993402 34 18410571803455913846
15196674 1 18337670815485713766
15775835 57 18410575046319596685
16945 1 18187939386149543651
17802600 8 18410289237483760909
18186145 218 18060138734817194680
18522853 276 18272369789009104873
200 152 18201995543379222399
20201158 50 18260550017493640867
20279233 1 14923944522441871475
20645477 70 18265609888643367774
21267235 1 18411426128196174190
21293036 1 18410291419443035886
21501502 16 18042956572083520835
23402539 116 18412257316574864956
23402655 69 18337378341461885293
23557571 272 18202569457793573149
23559900 14 18343299233384461486
2748010 2 17904768026248236555
3248919 1 16877954801725614759
3312278 4 18341048519411661617
4990 188 18130793335038587062

> <PUBCHEM_SHAPE_MULTIPOLES>
265.52
8.19
1.42
0.77
5.63
0.13
0.14
-0.36
-0.81
-0.61
-0.07
-0.43
0.04
-0.09

> <PUBCHEM_SHAPE_SELFOVERLAP>
530.992

> <PUBCHEM_SHAPE_VOLUME>
155.5

> <RelativeEnergy>
7.47016

> <StereoisomerIndex>
1

> <TautomerIndex>
1

> <POSE_NUMBER>
1

> <LibDockScore>
84.2268

> <HotSpots>
7.61,1.27,1.95,A,80,7
6.61,-0.93,-0.06,A,65,10
7.81,4.27,4.14,A,90,14

> <-In-Situ Starting Energy>
-874.905936

> <-In-Situ Final Energy>
-4.71284223

> <In-Situ Gradient>
0.0007946441793

$$$$
44457740
  SciTegic09142310043D

 22 23  0  0  0  0            999 V2000
    3.1665    3.1088   -1.7510 O   0  0  0  1  0  0
    4.0013    2.5298   -0.8161 N   0  0  0  1  0  0
    7.5179    1.3200   -0.4875 C   0  0  2  1  0  0
    6.8958    0.8147    1.9827 C   0  0  1  1  0  0
    8.0915    2.4159    0.4516 C   0  0  0  1  0  0
    7.8196    2.0584    1.9405 C   0  0  0  1  0  0
    6.0545    1.4383   -0.1749 C   0  0  0  1  0  0
    5.7353    1.2285    1.1170 C   0  0  0  1  0  0
    7.9301   -0.0459   -0.0026 C   0  0  0  1  0  0
    7.6571   -0.2874    1.2905 C   0  0  0  1  0  0
    5.0677    1.8127   -1.1761 C   0  0  0  1  0  0
    3.7321    3.5335   -2.3977 H   0  0
    7.7459    1.4815   -1.5416 H   0  0
    6.5279    0.4530    2.9389 H   0  0
    9.1446    2.5768    0.2862 H   0  0
    7.6301    3.3764    0.2139 H   0  0
    7.3603    2.9198    2.4270 H   0  0
    8.7696    1.8680    2.4380 H   0  0
    4.7577    1.3140    1.5422 H   0  0
    8.4102   -0.7444   -0.6556 H   0  0
    7.9112   -1.1947    1.8076 H   0  0
    5.2158    1.6034   -2.2360 H   0  0
  1  2  1  0
  2 11  2  0
  3  5  1  0
  3  7  1  0
  3  9  1  0
  4  6  1  0
  4  8  1  0
  4 10  1  0
  5  6  1  0
  7  8  2  0
  7 11  1  0
  9 10  2  0
  1 12  1  0
  3 13  1  0
  4 14  1  0
  5 15  1  0
  5 16  1  0
  6 17  1  0
  6 18  1  0
  8 19  1  0
  9 20  1  0
 10 21  1  0
 11 22  1  0
M  END
> <Name>
44457740

> <Binding Energy>
-41.4296

> <Ligand Energy>
87.9988

> <Protein Energy>
-7801.1566

> <Complex Energy>
-7754.5874

> <Complex Entropy>
-31.4756

> <Protein Entropy>
-31.4717

> <Ligand Entropy>
-17.409

> <Entropic Energy>
17.4051

> <AbsoluteEnergy>
25.6322

> <ConfNumber>
2

> <Ionization pH>
7.5

> <IonizationIndex>
1

> <MOL_NUMBER>
71

> <NumberOfIonizations>
1

> <NumberOfStereoisomers>
1

> <NumberOfTautomers>
1

> <PUBCHEM_ATOM_DEF_STEREO_COUNT>
0

> <PUBCHEM_ATOM_UDEF_STEREO_COUNT>
2

> <PUBCHEM_BOND_DEF_STEREO_COUNT>
1

> <PUBCHEM_BOND_UDEF_STEREO_COUNT>
0

> <PUBCHEM_CACTVS_TAUTO_COUNT>
2

> <PUBCHEM_COMPONENT_COUNT>
1

> <PUBCHEM_COMPOUND_CID>
44457740

> <PUBCHEM_CONFORMER_DIVERSEORDER>
1

> <PUBCHEM_CONFORMER_ID>
02A65F0C00000001

> <PUBCHEM_CONFORMER_RMSD>
0.4

> <PUBCHEM_COORDINATE_TYPE>
2
5
10

> <PUBCHEM_EFFECTIVE_ROTOR_COUNT>
1.4

> <PUBCHEM_FEATURE_SELFOVERLAP>
15.223

> <PUBCHEM_HEAVY_ATOM_COUNT>
11

> <PUBCHEM_ISOTOPIC_ATOM_COUNT>
0

> <PUBCHEM_MMFF94_ENERGY>
34.962

> <PUBCHEM_MMFF94_PARTIAL_CHARGES>
14
1 -0.34
10 -0.29
11 0.38
18 0.15
19 0.15
2 -0.51
20 0.15
21 0.06
22 0.4
3 0.28
4 0.28
7 -0.12
8 -0.29
9 -0.29

> <PUBCHEM_PHARMACOPHORE_FEATURES>
3
1 1 anion
1 2 acceptor
8 3 4 5 6 7 8 9 10 rings

> <PUBCHEM_SHAPE_FINGERPRINT>
12423570 1 11246537685190328652
12725867 57 17989209213749669856
12932764 1 18131632283880018167
14344429 50 18130785676510511360
16945 1 18262822703901909654
20653085 51 17245299601073020476
20653091 64 17531244006207900464
21040471 1 18267021841639817806
230 275 18059570321507039401
29004967 10 16298651824939124952
5084963 1 18335702715367835003
528886 8 18187655729498193454
68250623 7 16880208964061489386

> <PUBCHEM_SHAPE_MULTIPOLES>
215.52
4.01
1.24
1.18
5.41
0.07
0.08
0.09
-0.01
-0.37
-0.01
-0.89
-0.26
-0.05

> <PUBCHEM_SHAPE_SELFOVERLAP>
458.44

> <PUBCHEM_SHAPE_VOLUME>
120.3

> <RelativeEnergy>
0.380358

> <StereoisomerIndex>
1

> <TautomerIndex>
1

> <POSE_NUMBER>
1

> <LibDockScore>
65.6917

> <HotSpots>
3.21,3.27,-1.25,P,79,2
7.81,2.67,0.94,A,73,6
6.01,1.67,2.54,A,83,10

> <-In-Situ Starting Energy>
-3380.61986

> <-In-Situ Final Energy>
-55.3679925

> <In-Situ Gradient>
0.0009648614053

$$$$
54685524
  SciTegic09142310043D

 44 47  0  0  0  0            999 V2000
   14.5916    2.8617   -6.1160 O   0  0  0  1  0  0
   11.6287    4.7915  -12.1388 O   0  0  0  1  0  0
   15.4807    3.5596  -11.6554 O   0  0  0  1  0  0
   11.9671    4.5762   -8.7700 O   0  5  0  1  0  0
   12.2394    0.9037  -10.9833 O   0  5  0  1  0  0
   16.2111    3.7738   -9.5456 O   0  0  0  1  0  0
   15.4189    1.5913   -7.7442 O   0  0  0  1  0  0
   13.5583    5.4145  -11.2712 O   0  0  0  1  0  0
   14.0415    2.8002   -9.8830 C   0  0  0  1  0  0
   13.8359    3.1616   -8.4289 C   0  0  0  1  0  0
   12.8928    3.1658  -10.7936 C   0  0  0  1  0  0
   12.7685    4.0880   -7.9767 C   0  0  0  1  0  0
   11.9625    2.0910  -11.1893 C   0  0  0  1  0  0
   12.7310    4.3724   -6.5519 C   0  0  0  1  0  0
   10.7318    2.5379  -11.8178 C   0  0  0  1  0  0
   15.3462    3.4293  -10.3433 C   0  0  0  1  0  0
   14.6647    2.4898   -7.3927 C   0  0  0  1  0  0
   12.7079    4.5345  -11.3951 C   0  0  0  1  0  0
   13.6547    3.8174   -5.6812 C   0  0  0  1  0  0
   10.5894    3.8497  -12.2445 C   0  0  0  1  0  0
   11.7456    5.2134   -6.0606 C   0  0  0  1  0  0
    9.6801    1.6478  -11.9766 C   0  0  0  1  0  0
   13.6490    4.1605   -4.3380 C   0  0  0  1  0  0
    9.4180    4.2692  -12.8444 C   0  0  0  1  0  0
   11.6623    5.4661   -4.6973 C   0  0  0  1  0  0
    8.4856    2.0816  -12.5395 C   0  0  0  1  0  0
   12.6438    4.9827   -3.8417 C   0  0  0  1  0  0
    8.3559    3.3883  -12.9896 C   0  0  0  1  0  0
   16.6375    4.2368  -12.1337 C   0  0  0  1  0  0
   16.7124    5.6905  -11.6225 C   0  0  0  1  0  0
   14.2063    1.7242   -9.9486 H   0  0
   11.0608    5.6480   -6.7774 H   0  0
    9.8109    0.6340  -11.6188 H   0  0
   14.4183    3.7717   -3.6937 H   0  0
    9.3524    5.2871  -13.1718 H   0  0
   10.8530    6.0665   -4.3106 H   0  0
    7.6428    1.4141  -12.5750 H   0  0
   12.6068    5.2274   -2.7918 H   0  0
    7.4286    3.7310  -13.4245 H   0  0
   16.5780    4.2418  -13.2208 H   0  0
   17.5146    3.6442  -11.8810 H   0  0
   16.9758    5.7529  -10.5690 H   0  0
   15.7557    6.1965  -11.7236 H   0  0
   17.4617    6.2528  -12.1769 H   0  0
  1 17  1  0
  1 19  1  0
  2 18  1  0
  2 20  1  0
  3 16  1  0
  3 29  1  0
  4 12  1  0
  5 13  1  0
  6 16  2  0
  7 17  2  0
  8 18  2  0
  9 10  1  0
  9 11  1  0
  9 16  1  0
 10 12  2  0
 10 17  1  0
 11 13  2  0
 11 18  1  0
 12 14  1  0
 13 15  1  0
 14 19  2  0
 14 21  1  0
 15 20  2  0
 15 22  1  0
 19 23  1  0
 20 24  1  0
 21 25  2  0
 22 26  2  0
 23 27  2  0
 24 28  2  0
 25 27  1  0
 26 28  1  0
 29 30  1  0
  9 31  1  0
 21 32  1  0
 22 33  1  0
 23 34  1  0
 24 35  1  0
 25 36  1  0
 26 37  1  0
 27 38  1  0
 28 39  1  0
 29 40  1  0
 29 41  1  0
 30 42  1  0
 30 43  1  0
 30 44  1  0
M  CHG  2   4  -1   5  -1
M  END
> <Name>
54685524

> <Binding Energy>
-16.9147

> <Ligand Energy>
6.2835

> <Protein Energy>
-7801.1566

> <Complex Energy>
-7811.7878

> <Complex Entropy>
-31.4857

> <Protein Entropy>
-31.4717

> <Ligand Entropy>
-20.1064

> <Entropic Energy>
20.0924

> <AbsoluteEnergy>
51.2934

> <ConfNumber>
23

> <Ionization pH>
7.5_DD

> <IonizationIndex>
2

> <MOL_NUMBER>
80

> <NumberOfIonizations>
2

> <NumberOfStereoisomers>
1

> <NumberOfTautomers>
1

> <PUBCHEM_ATOM_DEF_STEREO_COUNT>
0

> <PUBCHEM_ATOM_UDEF_STEREO_COUNT>
0

> <PUBCHEM_BOND_DEF_STEREO_COUNT>
0

> <PUBCHEM_BOND_UDEF_STEREO_COUNT>
0

> <PUBCHEM_CACTVS_TAUTO_COUNT>
6

> <PUBCHEM_COMPONENT_COUNT>
1

> <PUBCHEM_COMPOUND_CID>
54685524

> <PUBCHEM_CONFORMER_DIVERSEORDER>
2
3
27
13
21
6
12
14
17
15
25
28
9
16
18
32
19
26
10
24
7
30
5
20
31
8
33
29
22
11
1
23
4

> <PUBCHEM_CONFORMER_ID>
03426F5400000002

> <PUBCHEM_CONFORMER_RMSD>
0.8

> <PUBCHEM_COORDINATE_TYPE>
2
5
10

> <PUBCHEM_EFFECTIVE_ROTOR_COUNT>
5

> <PUBCHEM_FEATURE_SELFOVERLAP>
45.727

> <PUBCHEM_HEAVY_ATOM_COUNT>
30

> <PUBCHEM_ISOTOPIC_ATOM_COUNT>
0

> <PUBCHEM_MMFF94_ENERGY>
104.394

> <PUBCHEM_MMFF94_PARTIAL_CHARGES>
39
1 -0.23
10 -0.12
11 -0.12
12 0.05
13 0.05
14 0.03
15 0.03
16 0.66
17 0.71
18 0.71
19 0.08
2 -0.23
20 0.08
21 -0.15
22 -0.15
23 -0.15
24 -0.15
25 -0.15
26 -0.15
27 -0.15
28 -0.15
29 0.28
3 -0.43
32 0.15
33 0.15
34 0.15
35 0.15
36 0.15
37 0.15
38 0.15
39 0.15
4 -0.53
40 0.45
41 0.45
5 -0.53
6 -0.57
7 -0.57
8 -0.57
9 0.34

> <PUBCHEM_PHARMACOPHORE_FEATURES>
9
1 4 donor
1 5 donor
1 6 acceptor
1 7 acceptor
1 8 acceptor
6 1 10 12 14 17 19 rings
6 14 19 21 23 25 27 rings
6 15 20 22 24 26 28 rings
6 2 11 13 15 18 20 rings

> <PUBCHEM_SHAPE_FINGERPRINT>
10165383 225 18128837402225597259
10190108 129 17983305012941171263
10498660 4 18411699898276232817
11578080 2 18269579203186987483
11720765 8 17908981011419519662
12363563 72 8286210477826454869
12422481 6 18187631506378438480
12730499 353 18343028791582563891
12788726 201 16737514383273022818
12895837 130 17756435116597384220
12969540 114 18059574728170157565
133893 2 18127710235224482442
13540713 4 18188225212645861947
13965767 371 17024298631394485581
14341114 328 17168140199656654968
14739800 52 18042951250551450864
14955137 171 11386663914127625126
15163728 17 18409739464442784304
16988056 13 17762041160687030708
17899979 19 18265905658073125310
1813 80 16913690995360424926
20715895 44 17100561801975606677
21033648 29 18199746024019858344
21756936 100 17678174009140634248
21859007 373 18409725184610552684
22149856 69 18043835117326460585
22182313 1 18115611291393849835
23559900 14 18193833731032420063
238 59 17846777377965201365
3298306 158 18341618122554378166
3729539 64 18128282046423338534
38570 142 16082237232426030636
392239 28 16590011553007638145
44802255 64 18050027755280485612
46194498 28 18195528095741572887
469060 322 17979357787524338727
495365 180 18200864098163237507
5104073 3 17895476909030220361
5252454 2 18202566206956867699
5265222 85 18120953934874016428
550186 7 17897740974637045106
7808743 9 18187643660624890961

> <PUBCHEM_SHAPE_MULTIPOLES>
570.43
10.04
4.38
1.84
6.81
4.35
0.84
-9.95
-1.97
-4.37
-1.93
-0.91
0.1
2.26

> <PUBCHEM_SHAPE_SELFOVERLAP>
1272.55

> <PUBCHEM_SHAPE_VOLUME>
298.3

> <RelativeEnergy>
6.08925

> <StereoisomerIndex>
1

> <TautomerIndex>
1

> <POSE_NUMBER>
2

> <LibDockScore>
100.0838

> <HotSpots>
13.41,5.07,-3.25,A,44,27
9.21,3.67,-12.86,A,26,28
16.61,6.47,-11.46,A,30,30

> <-In-Situ Starting Energy>
-3586.20484

> <-In-Situ Final Energy>
45.2225098

> <In-Situ Gradient>
0.0009147633938

$$$$
92131208
  SciTegic09142310043D

 53 56  0  0  0  0            999 V2000
   12.6010    3.9191   -7.1664 O   0  0  0  1  0  0
   13.3467    3.7451   -9.3421 O   0  0  0  1  0  0
   11.6807    1.2416   -6.2529 O   0  0  0  1  0  0
   14.9982    2.6823   -5.6527 O   0  0  0  1  0  0
   12.3195    1.2839   -8.6566 O   0  0  0  1  0  0
   13.6607    5.1765   -3.8503 O   0  0  0  1  0  0
   14.7501    2.9523  -12.6141 O   0  3  0  1  0  0
   18.2515    2.3790   -9.3754 O   0  0  0  1  0  0
   19.1487    1.4361  -14.0308 O   0  0  0  1  0  0
   10.6780    5.3956  -14.7181 O   0  0  0  1  0  0
    8.5316    4.2703  -13.2917 O   0  0  0  1  0  0
   13.0814    1.3910   -6.4069 C   0  0  2  1  0  0
   13.5994    2.4917   -5.4658 C   0  0  2  1  0  0
   13.4009    1.7681   -7.8723 C   0  0  2  1  0  0
   12.8544    3.8129   -5.7686 C   0  0  1  1  0  0
   13.5559    3.3040   -8.0144 C   0  0  2  1  0  0
   13.5922    5.0688   -5.2742 C   0  0  0  1  0  0
   14.2811    3.3363  -10.3036 C   0  0  0  1  0  0
   13.8717    3.2920  -11.6402 C   0  0  0  1  0  0
   15.6173    3.0164   -9.9991 C   0  0  0  1  0  0
   16.5041    2.6321  -11.0205 C   0  0  0  1  0  0
   16.0525    2.5961  -12.3589 C   0  0  0  1  0  0
   12.4681    3.5872  -12.0565 C   0  0  0  1  0  0
   17.8320    2.2893  -10.6957 C   0  0  0  1  0  0
   16.9464    2.1991  -13.3703 C   0  0  0  1  0  0
   12.2055    4.3647  -13.1700 C   0  0  0  1  0  0
   11.3940    3.0731  -11.3581 C   0  0  0  1  0  0
   18.7001    1.8806  -11.7186 C   0  0  0  1  0  0
   18.2601    1.8349  -13.0484 C   0  0  0  1  0  0
   10.9032    4.6320  -13.5837 C   0  0  0  1  0  0
   10.0901    3.3017  -11.7639 C   0  0  0  1  0  0
    9.8334    4.0739  -12.8852 C   0  0  0  1  0  0
   11.2672    1.7957   -6.9147 H   0  0
   15.4807    1.8615   -5.6233 H   0  0
   12.1526    0.3689   -8.4417 H   0  0
   14.3501    5.7924   -3.5769 H   0  0
   19.0131    1.8381   -9.2090 H   0  0
   18.7001    0.9872  -14.7353 H   0  0
   11.0986    6.2554  -14.6967 H   0  0
    8.0549    3.4544  -13.2639 H   0  0
   13.5220    0.4229   -6.1575 H   0  0
   13.3967    2.2334   -4.4275 H   0  0
   14.3293    1.2892   -8.1980 H   0  0
   11.8853    3.7884   -5.2709 H   0  0
   14.5309    3.6395   -7.6874 H   0  0
   14.5844    5.0585   -5.7198 H   0  0
   13.0741    5.9452   -5.6683 H   0  0
   16.0062    3.0557   -8.9941 H   0  0
   16.5888    2.1881  -14.3899 H   0  0
   13.0265    4.7682  -13.7362 H   0  0
   11.5468    2.4639  -10.4806 H   0  0
   19.7313    1.6262  -11.5254 H   0  0
    9.2938    2.8658  -11.1843 H   0  0
  1 15  1  0
  1 16  1  0
  2 16  1  0
  2 18  1  0
  3 12  1  0
  4 13  1  0
  5 14  1  0
  6 17  1  0
  7 19  2  0
  7 22  1  0
  8 24  1  0
  9 29  1  0
 10 30  1  0
 11 32  1  0
 12 13  1  0
 12 14  1  0
 13 15  1  0
 14 16  1  0
 15 17  1  0
 18 19  1  0
 18 20  2  0
 19 23  1  0
 20 21  1  0
 21 22  1  0
 21 24  2  0
 22 25  2  0
 23 26  2  0
 23 27  1  0
 24 28  1  0
 25 29  1  0
 26 30  1  0
 27 31  2  0
 28 29  2  0
 30 32  2  0
 31 32  1  0
  3 33  1  0
  4 34  1  0
  5 35  1  0
  6 36  1  0
  8 37  1  0
  9 38  1  0
 10 39  1  0
 11 40  1  0
 12 41  1  0
 13 42  1  0
 14 43  1  0
 15 44  1  0
 16 45  1  0
 17 46  1  0
 17 47  1  0
 20 48  1  0
 25 49  1  0
 26 50  1  0
 27 51  1  0
 28 52  1  0
 31 53  1  0
M  CHG  1   7   1
M  END
> <Name>
92131208

> <Binding Energy>
-97.3099

> <Ligand Energy>
59.2029

> <Protein Energy>
-7801.1566

> <Complex Energy>
-7839.2637

> <Complex Entropy>
-31.4878

> <Protein Entropy>
-31.4717

> <Ligand Entropy>
-20.5286

> <Entropic Energy>
20.5125

> <AbsoluteEnergy>
73.7644

> <ConfNumber>
41

> <Ionization pH>
7.5

> <IonizationIndex>
1

> <MOL_NUMBER>
83

> <NumberOfIonizations>
1

> <NumberOfStereoisomers>
1

> <NumberOfTautomers>
1

> <PUBCHEM_ATOM_DEF_STEREO_COUNT>
3

> <PUBCHEM_ATOM_UDEF_STEREO_COUNT>
2

> <PUBCHEM_BOND_DEF_STEREO_COUNT>
0

> <PUBCHEM_BOND_UDEF_STEREO_COUNT>
0

> <PUBCHEM_CACTVS_TAUTO_COUNT>
147

> <PUBCHEM_COMPONENT_COUNT>
1

> <PUBCHEM_COMPOUND_CID>
92131208

> <PUBCHEM_CONFORMER_DIVERSEORDER>
1
165
171
205
118
199
150
185
129
206
116
176
173
211
167
200
195
178
164
204
148
123
70
90
203
172
130
212
131
100
216
174
222
223
139
219
194
124
38
51
26
136
32
191
12
181
162
42
83
179
57
115
22
46
214
156
73
209
14
192
62
215
104
11
21
107
87
97
106
59
213
193
20
188
63
149
180
169
161
47
41
159
133
30
95
160
220
202
190
9
170
74
151
184
201
84
4
111
120
177
93
224
80
147
128
137
72
108
45
6
78
122
186
25
8
34
85
55
43
157
96
94
69
33
132
198
27
158
50
5
221
75
163
65
121
208
79
217
113
60
153
146
7
134
67
110
40
35
143
58
189
152
105
2
56
16
98
109
88
102
76
103
92
218
48
53
197
66
154
183
82
125
117
13
17
101
114
112
135
10
64
168
44
77
145
52
210
24
23
99
126
15
36
127
19
31
61
71
182
155
166
144
54
91
29
119
28
86
89
141
187
37
140
142
49
196
175
207
138
68
39
18
81
3

> <PUBCHEM_CONFORMER_ID>
057DCF8800000001

> <PUBCHEM_CONFORMER_RMSD>
0.8

> <PUBCHEM_COORDINATE_TYPE>
2
5
10

> <PUBCHEM_EFFECTIVE_ROTOR_COUNT>
5.2

> <PUBCHEM_FEATURE_SELFOVERLAP>
91.444

> <PUBCHEM_HEAVY_ATOM_COUNT>
32

> <PUBCHEM_ISOTOPIC_ATOM_COUNT>
0

> <PUBCHEM_MMFF94_ENERGY>
101.3763

> <PUBCHEM_MMFF94_PARTIAL_CHARGES>
46
1 -0.56
10 -0.53
11 -0.53
12 0.28
13 0.28
14 0.28
15 0.28
16 0.56
17 0.28
18 0.09
19 0.85
2 -0.36
20 -0.18
21 0.03
22 0.92
23 0.09
24 0.08
25 -0.15
26 -0.15
27 -0.15
28 -0.15
29 0.08
3 -0.68
30 0.08
31 -0.15
32 0.08
4 -0.68
40 0.4
41 0.4
42 0.4
43 0.4
44 0.15
45 0.15
46 0.15
47 0.15
48 0.15
49 0.15
5 -0.68
50 0.45
51 0.45
52 0.45
53 0.45
6 -0.68
7 -0.87
8 -0.53
9 -0.53

> <PUBCHEM_PHARMACOPHORE_FEATURES>
18
1 1 acceptor
1 10 donor
1 11 donor
1 2 acceptor
1 3 acceptor
1 3 donor
1 4 acceptor
1 4 donor
1 5 acceptor
1 5 donor
1 6 acceptor
1 6 donor
1 8 donor
1 9 donor
6 1 12 13 14 15 16 rings
6 21 22 24 25 28 29 rings
6 23 26 27 30 31 32 rings
6 7 18 19 20 21 22 rings

> <PUBCHEM_SHAPE_FINGERPRINT>
10050765 1 18410855439956286548
10190108 129 18121241809051122393
11014199 57 18050575332680926882
11045515 52 18190737733547479181
11115154 58 17700952570332162541
12160290 23 18126536029788812732
12293681 4 18265055915145078498
12422481 6 18125189081348780481
12553582 1 18194388112331231738
12788726 201 18337942476436007074
13140716 1 17979073009632530600
138480 1 16465300086176072157
13911987 19 17179699559111174156
140371 6 18264773336456419444
14068700 686 18199186364612421308
14790565 3 18122626059034629900
14866123 147 18267303136360147746
14955137 171 17186717763100174784
15131766 46 14905907206625293544
15775530 1 17986081176384156088
15927050 60 18051410673834842958
16087824 20 18410293632232297837
16728300 4 16163830534012934466
17138139 8 17626624321284774917
19591789 44 18122628240788007668
21049683 271 17612031877241992460
21120745 212 18123489412081256164
21236236 1 18342174454053022820
21796203 349 17179998596346106938
23558518 356 18335144168030374086
23559900 14 17545874297302047747
283562 15 18410847759589553207
3178227 256 18263938790637364515
3298306 158 17615415753162453708
3380486 145 17829904470094132770
4015057 19 17689425410085191015
4058900 60 17766290773160429408
4409770 3 18410004438661416141
463206 1 17902794398872100826
5309563 4 18124311872532422302
653340 110 18411974772172351242
6669772 16 17694223270727421302
9777508 108 18412538787088271024

> <PUBCHEM_SHAPE_MULTIPOLES>
593.98
9.32
7.2
1.11
15.89
0.65
-0.1
-0.58
0.03
-9.98
-0.91
-1.14
-0.31
-0.87

> <PUBCHEM_SHAPE_SELFOVERLAP>
1302.883

> <PUBCHEM_SHAPE_VOLUME>
316.8

> <RelativeEnergy>
13.5895

> <StereoisomerIndex>
1

> <TautomerIndex>
1

> <POSE_NUMBER>
1

> <LibDockScore>
85.3577

> <HotSpots>
14.01,6.27,-5.46,P,57,6
11.01,5.47,-15.65,P,18,10
9.21,3.67,-12.86,A,26,31

> <-In-Situ Starting Energy>
-2061.6783

> <-In-Situ Final Energy>
-10.4362359

> <In-Situ Gradient>
0.000954654516

$$$$
119041
  SciTegic09142310043D

 63 68  0  0  0  0            999 V2000
   14.3609    0.4567   -7.1910 O   0  0  0  1  0  0
   14.9834    2.6939   -5.5355 O   0  0  0  1  0  0
   15.6446    2.5924  -10.1205 O   0  0  0  1  0  0
   11.3461    1.8308  -14.0850 O   0  0  0  1  0  0
   17.0950    2.1299   -6.0133 O   0  0  0  1  0  0
   12.8503    5.4928   -3.4824 O   0  0  0  1  0  0
    9.1251    1.7937  -14.4185 O   0  0  0  1  0  0
   14.0583    1.6007   -8.0237 C   0  0  1  1  0  0
   13.7395    1.2655   -9.5097 C   0  0  1  1  0  0
   13.2025    2.6458   -7.2837 C   0  0  1  1  0  0
   12.3431    1.8542   -9.8392 C   0  0  1  1  0  0
   15.4202    1.3737   -7.5166 C   0  0  1  1  0  0
   11.8498    1.8040  -11.3067 C   0  0  1  1  0  0
   11.7003    2.2460   -7.4736 C   0  0  0  1  0  0
   11.3645    1.4498   -8.7492 C   0  0  0  1  0  0
   13.5758    2.6213   -5.7673 C   0  0  2  1  0  0
   12.9152    2.4799  -12.2050 C   0  0  1  1  0  0
   14.7060    1.9577  -10.4894 C   0  0  0  1  0  0
   13.8844   -0.2619   -9.7223 C   0  0  0  1  0  0
   14.3253    1.8790  -11.9743 C   0  0  0  1  0  0
   13.4888    4.0663   -7.8510 C   0  0  0  1  0  0
   15.9072    2.0967   -6.2833 C   0  0  0  1  0  0
   12.4771    2.6441  -13.7110 C   0  0  0  1  0  0
   11.5338    0.3393  -11.7223 C   0  0  0  1  0  0
   10.6773    2.7550  -11.4592 C   0  0  0  1  0  0
   12.9902    3.7938   -4.9915 C   0  0  0  1  0  0
   12.1555    4.1192  -14.0379 C   0  0  0  1  0  0
   13.5986    2.1905  -14.6599 C   0  0  0  1  0  0
    9.7477    2.7148  -12.4226 C   0  0  0  1  0  0
   11.7313    4.3863   -5.1096 C   0  0  0  1  0  0
   13.6428    4.5023   -3.9749 C   0  0  0  1  0  0
   10.0822    2.0799  -13.7125 C   0  0  0  1  0  0
   11.6825    5.4196   -4.1752 C   0  0  0  1  0  0
   12.4377    2.9305   -9.7163 H   0  0
   16.1855    0.9959   -8.1939 H   0  0
   11.3345    1.6852   -6.6134 H   0  0
   11.0981    3.1462   -7.5351 H   0  0
   10.3423    1.6484   -9.0625 H   0  0
   11.4178    0.3783   -8.5591 H   0  0
   13.2190    1.7060   -5.2924 H   0  0
   13.0248    3.5011  -11.8304 H   0  0
   13.1831   -0.8281   -9.1093 H   0  0
   14.8856   -0.6022   -9.4541 H   0  0
   13.7355   -0.5699  -10.7545 H   0  0
   14.3862    0.8456  -12.3111 H   0  0
   15.0903    2.4417  -12.5059 H   0  0
   12.5768    4.6398   -8.0137 H   0  0
   14.0284    4.0485   -8.7965 H   0  0
   14.0956    4.6696   -7.1817 H   0  0
   11.5581   -0.3336  -10.8673 H   0  0
   12.2374   -0.0422  -12.4623 H   0  0
   10.5324    0.1979  -12.1231 H   0  0
   10.5154    3.4285  -10.6359 H   0  0
   11.3001    4.4997  -13.4847 H   0  0
   11.9427    4.2561  -15.0985 H   0  0
   12.9957    4.7570  -13.7777 H   0  0
   13.3258    2.3652  -15.6946 H   0  0
   13.7935    1.1233  -14.5565 H   0  0
   14.5304    2.7271  -14.5025 H   0  0
    8.7851    3.1738  -12.2991 H   0  0
   10.9354    4.1162   -5.7718 H   0  0
   14.6408    4.2851   -3.6314 H   0  0
   10.8305    6.0642   -4.0305 H   0  0
  1  8  1  0
  1 12  1  0
  2 16  1  0
  2 22  1  0
  3 18  2  0
  4 23  1  0
  4 32  1  0
  5 22  2  0
  6 31  1  0
  6 33  1  0
  7 32  2  0
  8  9  1  0
  8 10  1  0
  8 12  1  0
  9 11  1  0
  9 18  1  0
  9 19  1  0
 10 14  1  0
 10 16  1  0
 10 21  1  0
 11 13  1  0
 11 15  1  0
 12 22  1  0
 13 17  1  0
 13 24  1  0
 13 25  1  0
 14 15  1  0
 16 26  1  0
 17 20  1  0
 17 23  1  0
 18 20  1  0
 23 27  1  0
 23 28  1  0
 25 29  2  0
 26 30  1  0
 26 31  2  0
 29 32  1  0
 30 33  2  0
 11 34  1  0
 12 35  1  0
 14 36  1  0
 14 37  1  0
 15 38  1  0
 15 39  1  0
 16 40  1  0
 17 41  1  0
 19 42  1  0
 19 43  1  0
 19 44  1  0
 20 45  1  0
 20 46  1  0
 21 47  1  0
 21 48  1  0
 21 49  1  0
 24 50  1  0
 24 51  1  0
 24 52  1  0
 25 53  1  0
 27 54  1  0
 27 55  1  0
 27 56  1  0
 28 57  1  0
 28 58  1  0
 28 59  1  0
 29 60  1  0
 30 61  1  0
 31 62  1  0
 33 63  1  0
M  END
> <Name>
119041

> <Binding Energy>
-52.5028

> <Ligand Energy>
37.7512

> <Protein Energy>
-7801.1566

> <Complex Energy>
-7815.9082

> <Complex Entropy>
-31.4873

> <Protein Entropy>
-31.4717

> <Ligand Entropy>
-20.3674

> <Entropic Energy>
20.3518

> <AbsoluteEnergy>
85.3978

> <ConfNumber>
9

> <IonizationIndex>
1

> <MOL_NUMBER>
85

> <NumberOfIonizations>
1

> <NumberOfStereoisomers>
1

> <NumberOfTautomers>
1

> <PUBCHEM_ATOM_DEF_STEREO_COUNT>
8

> <PUBCHEM_ATOM_UDEF_STEREO_COUNT>
0

> <PUBCHEM_BOND_DEF_STEREO_COUNT>
0

> <PUBCHEM_BOND_UDEF_STEREO_COUNT>
0

> <PUBCHEM_CACTVS_TAUTO_COUNT>
2

> <PUBCHEM_COMPONENT_COUNT>
1

> <PUBCHEM_COMPOUND_CID>
119041

> <PUBCHEM_CONFORMER_DIVERSEORDER>
1
2

> <PUBCHEM_CONFORMER_ID>
0001D10100000001

> <PUBCHEM_CONFORMER_RMSD>
0.8

> <PUBCHEM_COORDINATE_TYPE>
2
5
10

> <PUBCHEM_EFFECTIVE_ROTOR_COUNT>
2.6

> <PUBCHEM_FEATURE_SELFOVERLAP>
55.868

> <PUBCHEM_HEAVY_ATOM_COUNT>
33

> <PUBCHEM_ISOTOPIC_ATOM_COUNT>
0

> <PUBCHEM_MMFF94_ENERGY>
144.7027

> <PUBCHEM_MMFF94_PARTIAL_CHARGES>
30
1 -0.3
10 0.09
12 0.05
13 0.14
16 0.46
18 0.45
2 -0.43
20 0.06
22 0.72
23 0.28
25 -0.29
26 -0.18
29 -0.14
3 -0.57
30 -0.15
31 -0.01
32 0.71
33 -0.01
35 0.1
4 -0.43
5 -0.57
53 0.15
6 -0.28
60 0.15
61 0.15
62 0.15
63 0.15
7 -0.57
8 -0.04
9 0.16

> <PUBCHEM_PHARMACOPHORE_FEATURES>
11
1 1 acceptor
1 3 acceptor
1 5 acceptor
1 6 acceptor
1 7 acceptor
3 23 27 28 hydrophobe
5 6 26 30 31 33 rings
6 8 9 10 11 14 15 rings
6 9 11 13 17 18 20 rings
7 1 2 8 10 12 16 22 rings
7 4 13 17 23 25 29 32 rings

> <PUBCHEM_SHAPE_FINGERPRINT>
10319926 262 18407764741627532490
10674148 151 18409172122114412540
10675989 125 17764872395108630081
10928967 22 12540697058616981233
11135609 201 17846788408090253001
11370993 144 18412260631988950140
11405975 8 18408040723335796952
12107183 9 18263636278124302386
12403259 118 18341323474464506154
12422481 6 18113894927434809636
12633257 1 18260540091787069218
12788726 201 17829348117415946141
12892183 10 18264488575597690142
12925494 130 18412538825832816513
131258 38 13486521258293288457
13140716 1 18334573551143403308
13224815 77 18187361069204161494
14068700 675 15049219441954050502
14178342 30 18187932836746371647
144659 39 18272933834084280231
14790565 3 18189623898546773068
14950920 106 15430330139386570349
15131766 46 15432599638870850607
15238133 3 18262529095426524740
16994733 274 16415206603826261969
17492 54 12463272757588344394
17980427 23 18411981377853450717
1813 80 16515676793173561518
19246450 95 17611157400547503536
20511986 3 18337093610846976181
20691752 17 17022897986793003286
20715895 44 18200312113325094145
21033648 144 18409438181182335165
21033648 29 17845636119651239882
21421861 104 17459745917807913018
21859007 373 17533487938180271989
22182313 1 18058192595036425703
22950370 63 10953744382875350525
23227448 37 18409165515383683311
23522609 53 17677351484317258564
23559900 14 17987531320345950814
23569914 2 17270271588678022032
2838139 119 18270675368671547933
3117164 225 18335700520497135128
335352 9 18337954485285691246
3633792 109 18189034457746364005
3680242 22 18261104128778796880
3862424 121 13697256672092749048
392239 28 17676756643925189322
4144715 1 18409458002620209034
4340502 62 18339651036338892405
46194498 28 12175034619860971577
5104073 3 18334566971643902946
59755656 215 18267872670661529318
7064713 232 18334575750098093540
7970288 3 10665238050627488057
9981440 41 18343585148935798459

> <PUBCHEM_SHAPE_MULTIPOLES>
638.04
12.9
3.45
1.57
0.52
0.19
-0.22
-8.16
4.31
2.43
0.64
-0.66
0.06
0.55

> <PUBCHEM_SHAPE_SELFOVERLAP>
1401.598

> <PUBCHEM_SHAPE_VOLUME>
340.4

> <RelativeEnergy>
10.4265

> <StereoisomerIndex>
1

> <TautomerIndex>
1

> <POSE_NUMBER>
1

> <LibDockScore>
107.3732

> <HotSpots>
13.41,6.07,-3.65,P,65,6
11.21,4.87,-14.65,A,18,27
9.21,3.67,-12.86,A,26,29

> <-In-Situ Starting Energy>
-2661.14941

> <-In-Situ Final Energy>
-37.6358824

> <In-Situ Gradient>
0.0009960813431

$$$$
100021
  SciTegic09142310043D

 45 49  0  0  0  0            999 V2000
    9.7226    4.1637  -11.9994 O   0  0  0  1  0  0
   14.3551   -0.6910   -9.2429 O   0  0  0  1  0  0
   13.9568    2.4151  -14.2215 O   0  0  0  1  0  0
   11.3221    5.7601  -12.2427 O   0  0  0  1  0  0
   16.1510    0.0789  -10.3407 O   0  0  0  1  0  0
   12.2546    0.0083   -5.6339 O   0  0  0  1  0  0
   11.7782    1.6503  -11.7765 C   0  0  2  1  0  0
   12.6704    1.0366  -10.6695 C   0  0  2  1  0  0
   12.4653    2.8833  -12.4168 C   0  0  2  1  0  0
   14.0218    0.6261  -11.3004 C   0  0  1  1  0  0
   11.5200    3.6315  -13.3836 C   0  0  3  1  0  0
   10.2982    1.9217  -11.3823 C   0  0  0  1  0  0
    9.5674    2.8145  -12.4120 C   0  0  3  1  0  0
   12.0659   -0.2836  -10.1963 C   0  0  0  1  0  0
   10.2934    2.7978  -13.7542 C   0  0  0  1  0  0
   14.7437    1.7725  -12.0417 C   0  0  0  1  0  0
   13.7696    2.4017  -13.0453 C   0  0  0  1  0  0
   12.8334    2.0294   -9.4864 C   0  0  0  1  0  0
   12.9523   -1.0005   -9.1612 C   0  0  2  1  0  0
   10.8351    4.6697  -12.4933 C   0  0  0  1  0  0
   14.9362   -0.0233  -10.2461 C   0  0  0  1  0  0
   12.4127   -0.7020   -7.7788 C   0  0  0  1  0  0
   11.1434   -1.0401   -7.3060 C   0  0  0  1  0  0
   13.0682   -0.0575   -6.7243 C   0  0  0  1  0  0
   11.0868   -0.6031   -5.9853 C   0  0  0  1  0  0
   11.7137    0.8900  -12.5585 H   0  0
   12.8051    3.5791  -11.6514 H   0  0
   13.8410   -0.1534  -12.0428 H   0  0
   12.0163    4.1128  -14.2272 H   0  0
    9.7667    0.9737  -11.2970 H   0  0
   10.2283    2.3966  -10.4046 H   0  0
    8.5051    2.5840  -12.4989 H   0  0
   11.9455   -0.9423  -11.0560 H   0  0
   11.0568   -0.1298   -9.8149 H   0  0
   10.5247    1.7995  -14.1240 H   0  0
    9.6966    3.3016  -14.5133 H   0  0
   15.0790    2.5423  -11.3462 H   0  0
   15.6201    1.4075  -12.5781 H   0  0
   11.8848    2.2171   -8.9841 H   0  0
   13.2447    2.9921   -9.7764 H   0  0
   13.5220    1.6633   -8.7300 H   0  0
   12.8653   -2.0766   -9.2987 H   0  0
   10.3551   -1.5416   -7.8423 H   0  0
   14.0779    0.3220   -6.7776 H   0  0
   10.2257   -0.7446   -5.3502 H   0  0
  1 13  1  0
  1 20  1  0
  2 19  1  0
  2 21  1  0
  3 17  2  0
  4 20  2  0
  5 21  2  0
  6 24  1  0
  6 25  1  0
  7  8  1  0
  7  9  1  0
  7 12  1  0
  8 10  1  0
  8 14  1  0
  8 18  1  0
  9 11  1  0
  9 17  1  0
 10 16  1  0
 10 21  1  0
 11 15  1  0
 11 20  1  0
 12 13  1  0
 13 15  1  0
 14 19  1  0
 16 17  1  0
 19 22  1  0
 22 23  1  0
 22 24  2  0
 23 25  2  0
  7 26  1  0
  9 27  1  0
 10 28  1  0
 11 29  1  0
 12 30  1  0
 12 31  1  0
 13 32  1  0
 14 33  1  0
 14 34  1  0
 15 35  1  0
 15 36  1  0
 16 37  1  0
 16 38  1  0
 18 39  1  0
 18 40  1  0
 18 41  1  0
 19 42  1  0
 23 43  1  0
 24 44  1  0
 25 45  1  0
M  END
> <Name>
100021

> <Binding Energy>
-48.981

> <Ligand Energy>
-9.8906

> <Protein Energy>
-7801.1566

> <Complex Energy>
-7860.0282

> <Complex Entropy>
-31.4836

> <Protein Entropy>
-31.4717

> <Ligand Entropy>
-19.6486

> <Entropic Energy>
19.6366

> <AbsoluteEnergy>
32.1673

> <ConfNumber>
7

> <IonizationIndex>
1

> <MOL_NUMBER>
116

> <NumberOfIonizations>
1

> <NumberOfStereoisomers>
32

> <NumberOfTautomers>
1

> <PUBCHEM_ATOM_DEF_STEREO_COUNT>
0

> <PUBCHEM_ATOM_UDEF_STEREO_COUNT>
7

> <PUBCHEM_BONDANNOTATIONS>
10  28  3
11  29  3
13  32  3
19  42  3
22  23  8
22  24  8
23  25  8
6  24  8
6  25  8
7  26  3
8  18  3
9  27  3

> <PUBCHEM_BOND_DEF_STEREO_COUNT>
0

> <PUBCHEM_BOND_UDEF_STEREO_COUNT>
0

> <PUBCHEM_CACTVS_COMPLEXITY>
644

> <PUBCHEM_CACTVS_HBOND_ACCEPTOR>
6

> <PUBCHEM_CACTVS_HBOND_DONOR>
0

> <PUBCHEM_CACTVS_ROTATABLE_BOND>
1

> <PUBCHEM_CACTVS_SUBSKEYS>
AAADceB4OAAAAAAAAAAAAAAAAAAAASJAAAA0YIAABIAAAADRgAAAGgAAAAAADxSgmAIyDIAABECIAqjSiAACCAAkIAAIiAEGCMgMJxYENQqCGSCl4BEIKYPLzPDPgAAAAAAAAADAAAYAACAAAAAAAAAAAA==

> <PUBCHEM_CACTVS_TAUTO_COUNT>
4

> <PUBCHEM_CACTVS_TPSA>
82.8

> <PUBCHEM_COMPONENT_COUNT>
1

> <PUBCHEM_COMPOUND_CANONICALIZED>
1

> <PUBCHEM_COMPOUND_CID>
100021

> <PUBCHEM_COORDINATE_TYPE>
1
5
255

> <PUBCHEM_EXACT_MASS>
344.12598835

> <PUBCHEM_HEAVY_ATOM_COUNT>
25

> <PUBCHEM_ISOTOPIC_ATOM_COUNT>
0

> <PUBCHEM_IUPAC_CAS_NAME>
8-(3-furanyl)-10-methyl-7,14-dioxatetracyclo[11.2.1.02,11.05,10]hexadecane-3,6,15-trione

> <PUBCHEM_IUPAC_INCHI>
InChI=1S/C19H20O6/c1-19-7-15(9-2-3-23-8-9)25-18(22)13(19)6-14(20)16-11-4-10(5-12(16)19)24-17(11)21/h2-3,8,10-13,15-16H,4-7H2,1H3

> <PUBCHEM_IUPAC_INCHIKEY>
FJCWYLRNGKSUCH-UHFFFAOYSA-N

> <PUBCHEM_IUPAC_NAME>
8-(furan-3-yl)-10-methyl-7,14-dioxatetracyclo[11.2.1.02,11.05,10]hexadecane-3,6,15-trione

> <PUBCHEM_IUPAC_NAME_MARKUP>
8-(furan-3-yl)-10-methyl-7,14-dioxatetracyclo[11.2.1.0<SUP>2,11</SUP>.0<SUP>5,10</SUP>]hexadecane-3,6,15-trione

> <PUBCHEM_IUPAC_OPENEYE_NAME>
8-(3-furyl)-10-methyl-7,14-dioxatetracyclo[11.2.1.02,11.05,10]hexadecane-3,6,15-trione

> <PUBCHEM_IUPAC_SYSTEMATIC_NAME>
8-(furan-3-yl)-10-methyl-7,14-dioxatetracyclo[11.2.1.02,11.05,10]hexadecane-3,6,15-trione

> <PUBCHEM_IUPAC_TRADITIONAL_NAME>
8-(3-furyl)-10-methyl-7,14-dioxatetracyclo[11.2.1.02,11.05,10]hexadecane-3,6,15-trione

> <PUBCHEM_MOLECULAR_FORMULA>
C19H20O6

> <PUBCHEM_MOLECULAR_WEIGHT>
344.4

> <PUBCHEM_MONOISOTOPIC_WEIGHT>
344.12598835

> <PUBCHEM_OPENEYE_CAN_SMILES>
CC12CC(OC(=O)C1CC(=O)C3C2CC4CC3C(=O)O4)C5=COC=C5

> <PUBCHEM_OPENEYE_ISO_SMILES>
CC12CC(OC(=O)C1CC(=O)C3C2CC4CC3C(=O)O4)C5=COC=C5

> <PUBCHEM_TOTAL_CHARGE>
0

> <PUBCHEM_XLOGP3_AA>
1.4

> <RelativeEnergy>
5.87118

> <StereoisomerIndex>
24

> <TautomerIndex>
1

> <POSE_NUMBER>
1

> <LibDockScore>
101.6151

> <HotSpots>
9.21,3.67,-12.86,A,26,13
9.01,2.67,-14.05,A,21,15
9.41,-1.33,-5.66,A,37,25

> <-In-Situ Starting Energy>
-221.875111

> <-In-Situ Final Energy>
5.59564099

> <In-Situ Gradient>
0.0009486969557

$$$$
101723032
  SciTegic09142310043D

 89 91  0  0  0  0            999 V2000
   18.2837    5.6924  -21.5936 O   0  0  0  1  0  0
   16.3624    2.8905  -14.9995 O   0  0  0  1  0  0
   20.3612    9.9585  -17.4829 O   0  0  0  1  0  0
   21.2513    3.7023  -24.7733 O   0  0  0  1  0  0
   21.7742    1.8636  -23.0227 O   0  0  0  1  0  0
   26.8792   13.1432  -18.2635 O   0  0  0  1  0  0
   13.0706    5.9667  -12.4829 O   0  0  0  1  0  0
   28.3197   11.3371  -19.3293 O   0  0  0  1  0  0
   10.7234    5.5401  -13.7964 O   0  0  0  1  0  0
   17.9673    7.0983  -19.8274 N   0  0  0  1  0  0
   15.9890    1.7852  -16.9656 N   0  0  0  1  0  0
   19.5627   11.1461  -19.2407 N   0  0  0  1  0  0
   16.9468    6.2178  -19.2213 C   0  0  0  1  0  0
   17.3627    4.7361  -19.0605 C   0  0  0  1  0  0
   18.3442    8.3262  -19.0984 C   0  0  0  1  0  0
   16.5242    3.9884  -18.0073 C   0  0  0  1  0  0
   17.6287    9.6059  -19.5702 C   0  0  0  1  0  0
   18.5562    6.7296  -21.0097 C   0  0  0  1  0  0
   16.9513    2.5302  -17.7814 C   0  0  0  1  0  0
   19.6323    7.6662  -21.6068 C   0  0  0  1  0  0
   18.1658   10.8795  -18.8854 C   0  0  0  1  0  0
   21.0529    7.1865  -21.2507 C   0  0  0  1  0  0
   21.3036    5.7687  -21.7027 C   0  0  0  1  0  0
   15.8211    1.9983  -15.6398 C   0  0  0  1  0  0
   20.5553   10.6391  -18.4801 C   0  0  0  1  0  0
   14.8758    0.9740  -14.9794 C   0  0  0  1  0  0
   21.9859   10.9354  -18.9668 C   0  0  0  1  0  0
   14.4791    1.3249  -13.5269 C   0  0  0  1  0  0
   22.9664   10.0400  -18.1725 C   0  0  0  1  0  0
   21.2097    5.4390  -23.0540 C   0  0  0  1  0  0
   21.5759    4.7626  -20.7753 C   0  0  0  1  0  0
   13.4383    2.4139  -13.4489 C   0  0  0  1  0  0
   24.4266   10.3637  -18.3281 C   0  0  0  1  0  0
   21.3605    4.1184  -23.4584 C   0  0  0  1  0  0
   21.7456    3.4457  -21.1857 C   0  0  0  1  0  0
   21.6317    3.1372  -22.5298 C   0  0  0  1  0  0
   24.9600   11.6368  -18.0991 C   0  0  0  1  0  0
   13.7405    3.6626  -12.9093 C   0  0  0  1  0  0
   25.2764    9.3476  -18.7493 C   0  0  0  1  0  0
   12.1516    2.1804  -13.9236 C   0  0  0  1  0  0
   26.2708   11.9144  -18.4466 C   0  0  0  1  0  0
   12.8086    4.6988  -12.9715 C   0  0  0  1  0  0
   26.5859    9.6279  -19.0876 C   0  0  0  1  0  0
   11.2239    3.2114  -13.9832 C   0  0  0  1  0  0
   27.0567   10.9330  -18.9936 C   0  0  0  1  0  0
   11.5827    4.4838  -13.5808 C   0  0  0  1  0  0
   20.6421    4.2566  -25.2436 H   0  0
   21.6617    1.9741  -23.9659 H   0  0
   26.5353   13.5724  -17.4895 H   0  0
   13.7275    5.9410  -11.7983 H   0  0
   28.2322   12.2801  -19.2122 H   0  0
   11.1320    6.1831  -14.3794 H   0  0
   15.4658    1.0456  -17.3877 H   0  0
   19.7809   11.6939  -20.0470 H   0  0
   16.6927    6.6079  -18.2372 H   0  0
   16.0339    6.2835  -19.8123 H   0  0
   18.4179    4.6785  -18.8144 H   0  0
   17.2688    4.2198  -20.0149 H   0  0
   18.1435    8.1987  -18.0341 H   0  0
   19.4232    8.4366  -19.1568 H   0  0
   15.4805    4.0113  -18.3161 H   0  0
   16.5942    4.5168  -17.0583 H   0  0
   16.5646    9.5081  -19.3533 H   0  0
   17.7003    9.7178  -20.6514 H   0  0
   17.0156    1.9965  -18.7301 H   0  0
   17.9240    2.4614  -17.2923 H   0  0
   19.4891    8.7000  -21.3067 H   0  0
   19.4925    7.6614  -22.6872 H   0  0
   17.6038   11.7602  -19.1905 H   0  0
   18.0815   10.8146  -17.7982 H   0  0
   21.2151    7.2644  -20.1753 H   0  0
   21.7912    7.8375  -21.7196 H   0  0
   15.3967    0.0166  -14.9817 H   0  0
   13.9931    0.8473  -15.6067 H   0  0
   22.1851   12.0021  -18.8949 H   0  0
   22.0491   10.6937  -20.0283 H   0  0
   14.0662    0.4371  -13.0470 H   0  0
   15.3604    1.5986  -12.9448 H   0  0
   22.8254    9.0497  -18.5915 H   0  0
   22.7374    9.9312  -17.1118 H   0  0
   21.0017    6.2221  -23.7674 H   0  0
   21.6449    4.9943  -19.7237 H   0  0
   21.9538    2.6654  -20.4691 H   0  0
   24.3672   12.4758  -17.7956 H   0  0
   14.7314    3.8204  -12.5073 H   0  0
   24.9129    8.3413  -18.8989 H   0  0
   11.8824    1.1998  -14.2885 H   0  0
   27.1831    8.8462  -19.4940 H   0  0
   10.2337    3.0449  -14.3791 H   0  0
  1 18  2  0
  2 24  2  0
  3 25  2  0
  4 34  1  0
  5 36  1  0
  6 41  1  0
  7 42  1  0
  8 45  1  0
  9 46  1  0
 10 13  1  0
 10 15  1  0
 10 18  1  0
 11 19  1  0
 11 24  1  0
 12 21  1  0
 12 25  1  0
 13 14  1  0
 14 16  1  0
 15 17  1  0
 16 19  1  0
 17 21  1  0
 18 20  1  0
 20 22  1  0
 22 23  1  0
 23 30  2  0
 23 31  1  0
 24 26  1  0
 25 27  1  0
 26 28  1  0
 27 29  1  0
 28 32  1  0
 29 33  1  0
 30 34  1  0
 31 35  2  0
 32 38  2  0
 32 40  1  0
 33 37  2  0
 33 39  1  0
 34 36  2  0
 35 36  1  0
 37 41  1  0
 38 42  1  0
 39 43  2  0
 40 44  2  0
 41 45  2  0
 42 46  2  0
 43 45  1  0
 44 46  1  0
  4 47  1  0
  5 48  1  0
  6 49  1  0
  7 50  1  0
  8 51  1  0
  9 52  1  0
 11 53  1  0
 12 54  1  0
 13 55  1  0
 13 56  1  0
 14 57  1  0
 14 58  1  0
 15 59  1  0
 15 60  1  0
 16 61  1  0
 16 62  1  0
 17 63  1  0
 17 64  1  0
 19 65  1  0
 19 66  1  0
 20 67  1  0
 20 68  1  0
 21 69  1  0
 21 70  1  0
 22 71  1  0
 22 72  1  0
 26 73  1  0
 26 74  1  0
 27 75  1  0
 27 76  1  0
 28 77  1  0
 28 78  1  0
 29 79  1  0
 29 80  1  0
 30 81  1  0
 31 82  1  0
 35 83  1  0
 37 84  1  0
 38 85  1  0
 39 86  1  0
 40 87  1  0
 43 88  1  0
 44 89  1  0
M  END
> <Name>
101723032

> <Binding Energy>
-67.6337

> <Ligand Energy>
-70.14

> <Protein Energy>
-7801.1566

> <Complex Energy>
-7938.9303

> <Complex Entropy>
-31.5047

> <Protein Entropy>
-31.4717

> <Ligand Entropy>
-21.8253

> <Entropic Energy>
21.7923

> <AbsoluteEnergy>
56.8103

> <ConfNumber>
167

> <Ionization pH>
7.5

> <IonizationIndex>
1

> <MOL_NUMBER>
125

> <NumberOfIonizations>
1

> <NumberOfStereoisomers>
1

> <NumberOfTautomers>
1

> <PUBCHEM_ATOM_DEF_STEREO_COUNT>
0

> <PUBCHEM_ATOM_UDEF_STEREO_COUNT>
0

> <PUBCHEM_BONDANNOTATIONS>
23  30  8
23  31  8
30  34  8
31  35  8
32  38  8
32  40  8
33  37  8
33  39  8
34  36  8
35  36  8
37  41  8
38  42  8
39  43  8
40  44  8
41  45  8
42  46  8
43  45  8
44  46  8

> <PUBCHEM_BOND_DEF_STEREO_COUNT>
0

> <PUBCHEM_BOND_UDEF_STEREO_COUNT>
0

> <PUBCHEM_CACTVS_COMPLEXITY>
924

> <PUBCHEM_CACTVS_HBOND_ACCEPTOR>
9

> <PUBCHEM_CACTVS_HBOND_DONOR>
8

> <PUBCHEM_CACTVS_ROTATABLE_BOND>
18

> <PUBCHEM_CACTVS_SUBSKEYS>
AAADcfB/PAAAAAAAAAAAAAAAAAAAAAAAAAAwYMAAAAAAAAABUAAAHgAQCAAADATBmAQwBoPAAgCIAiFSEAACAAAgIAAIiIEOiIgJJjKC0RKEcAEk1hGJmAeYyLCOIAABAAAAQABAAAIAAACAAAAAAAAAAA==

> <PUBCHEM_CACTVS_TAUTO_COUNT>
-1

> <PUBCHEM_CACTVS_TPSA>
200

> <PUBCHEM_COMPONENT_COUNT>
1

> <PUBCHEM_COMPOUND_CANONICALIZED>
1

> <PUBCHEM_COMPOUND_CID>
101723032

> <PUBCHEM_COORDINATE_TYPE>
1
5
255

> <PUBCHEM_EXACT_MASS>
637.29992996

> <PUBCHEM_HEAVY_ATOM_COUNT>
46

> <PUBCHEM_ISOTOPIC_ATOM_COUNT>
0

> <PUBCHEM_IUPAC_CAS_NAME>
3-(3,4-dihydroxyphenyl)-N-[4-[[3-(3,4-dihydroxyphenyl)-1-oxopropyl]-[3-[[3-(3,4-dihydroxyphenyl)-1-oxopropyl]amino]propyl]amino]butyl]propanamide

> <PUBCHEM_IUPAC_INCHI>
InChI=1S/C34H43N3O9/c38-26-10-4-23(20-29(26)41)7-13-32(44)35-16-1-2-18-37(34(46)15-9-25-6-12-28(40)31(43)22-25)19-3-17-36-33(45)14-8-24-5-11-27(39)30(42)21-24/h4-6,10-12,20-22,38-43H,1-3,7-9,13-19H2,(
H,35,44)(H,36,45)

> <PUBCHEM_IUPAC_INCHIKEY>
GDPWISSAARFOCU-UHFFFAOYSA-N

> <PUBCHEM_IUPAC_NAME>
3-(3,4-dihydroxyphenyl)-N-[4-[3-(3,4-dihydroxyphenyl)propanoyl-[3-[3-(3,4-dihydroxyphenyl)propanoylamino]propyl]amino]butyl]propanamide

> <PUBCHEM_IUPAC_NAME_MARKUP>
3-(3,4-dihydroxyphenyl)-<I>N</I>-[4-[3-(3,4-dihydroxyphenyl)propanoyl-[3-[3-(3,4-dihydroxyphenyl)propanoylamino]propyl]amino]butyl]propanamide

> <PUBCHEM_IUPAC_OPENEYE_NAME>
3-(3,4-dihydroxyphenyl)-N-[4-[3-(3,4-dihydroxyphenyl)propanoyl-[3-[3-(3,4-dihydroxyphenyl)propanoylamino]propyl]amino]butyl]propanamide

> <PUBCHEM_IUPAC_SYSTEMATIC_NAME>
3-[3,4-bis(oxidanyl)phenyl]-N-[4-[3-[3,4-bis(oxidanyl)phenyl]propanoyl-[3-[3-[3,4-bis(oxidanyl)phenyl]propanoylamino]propyl]amino]butyl]propanamide

> <PUBCHEM_IUPAC_TRADITIONAL_NAME>
3-(3,4-dihydroxyphenyl)-N-[4-[3-(3,4-dihydroxyphenyl)propanoyl-[3-[3-(3,4-dihydroxyphenyl)propanoylamino]propyl]amino]butyl]propionamide

> <PUBCHEM_MOLECULAR_FORMULA>
C34H43N3O9

> <PUBCHEM_MOLECULAR_WEIGHT>
637.7

> <PUBCHEM_MONOISOTOPIC_WEIGHT>
637.29992996

> <PUBCHEM_OPENEYE_CAN_SMILES>
C1=CC(=C(C=C1CCC(=O)NCCCCN(CCCNC(=O)CCC2=CC(=C(C=C2)O)O)C(=O)CCC3=CC(=C(C=C3)O)O)O)O

> <PUBCHEM_OPENEYE_ISO_SMILES>
C1=CC(=C(C=C1CCC(=O)NCCCCN(CCCNC(=O)CCC2=CC(=C(C=C2)O)O)C(=O)CCC3=CC(=C(C=C3)O)O)O)O

> <PUBCHEM_TOTAL_CHARGE>
0

> <PUBCHEM_XLOGP3_AA>
3

> <RelativeEnergy>
8.53534

> <StereoisomerIndex>
1

> <TautomerIndex>
1

> <POSE_NUMBER>
4

> <LibDockScore>
172.6155

> <HotSpots>
16.81,4.47,-18.66,A,7,13
24.21,11.07,-17.86,A,15,37
25.01,8.87,-18.86,A,5,39

> <-In-Situ Starting Energy>
-267.77243

> <-In-Situ Final Energy>
67.2460951

> <In-Situ Gradient>
0.0029563848

$$$$
10511
  SciTegic09142310043D

 77 82  0  0  0  0            999 V2000
   13.1118    1.1233  -11.9272 O   0  0  0  1  0  0
   14.5472    1.1690   -8.3394 O   0  0  0  1  0  0
   11.2571    6.1388   -8.2061 O   0  0  0  1  0  0
   10.0575    4.8245  -13.4049 O   0  0  0  1  0  0
   12.4737    5.3175  -13.0838 O   0  0  0  1  0  0
   10.7852    0.2624  -11.7884 O   0  0  0  1  0  0
    8.7842    2.4451  -12.3715 O   0  0  0  1  0  0
   13.3823    4.9426   -4.7260 O   0  0  0  1  0  0
   10.7202    3.5008   -5.3210 O   0  0  0  1  0  0
   11.6481    1.8014   -7.3411 N   0  3  2  1  0  0
   12.3915    4.0409   -8.9614 C   0  0  3  1  0  0
   13.5640    3.4756   -8.2574 C   0  0  2  1  0  0
   12.2394    4.3684  -10.4995 C   0  0  1  1  0  0
   11.6637    2.5838   -8.6826 C   0  0  1  1  0  0
   12.5375    1.7175   -9.6270 C   0  0  3  1  0  0
   12.7898    3.3976  -11.5123 C   0  0  1  1  0  0
   12.3064    1.9778  -11.1426 C   0  0  1  1  0  0
   13.8931    2.1757   -9.0766 C   0  0  2  1  0  0
   12.9352    3.5235   -6.7136 C   0  0  3  1  0  0
   12.5222    5.5230   -8.2988 C   0  0  2  1  0  0
   10.7793    4.5758  -11.0172 C   0  0  0  1  0  0
   10.7248    4.0017  -12.4678 C   0  0  2  1  0  0
   12.1975    3.9373  -12.8257 C   0  0  1  1  0  0
   10.8190    1.6575  -11.5035 C   0  0  1  1  0  0
   12.7214    2.0935   -6.3433 C   0  0  0  1  0  0
   13.7707    4.5711   -6.0433 C   0  0  1  1  0  0
   10.1831    2.5530  -12.5744 C   0  0  1  1  0  0
   13.5095    5.7807   -7.0402 C   0  0  0  1  0  0
   11.4956    4.1576   -6.3080 C   0  0  0  1  0  0
   11.4411    0.3332   -7.4043 C   0  0  0  1  0  0
   15.1683    0.1472   -9.0941 C   0  0  0  1  0  0
   11.0026   -0.3705   -6.1167 C   0  0  0  1  0  0
   11.2145    7.5487   -8.1890 C   0  0  0  1  0  0
    7.9309    2.9505  -13.3775 C   0  0  0  1  0  0
   10.1353    4.3551   -4.3374 C   0  0  0  1  0  0
   12.6547    0.2847  -12.0147 H   0  0
   10.6676    5.5085  -13.6748 H   0  0
   13.4111    5.4315  -13.1990 H   0  0
    9.8879    0.0068  -12.0096 H   0  0
   13.5572    4.2410   -4.1054 H   0  0
   10.8169    2.1553   -6.8832 H   0  0
   14.4697    4.0726   -8.3754 H   0  0
   12.7759    5.2844  -10.7349 H   0  0
   10.6226    2.6497   -8.9603 H   0  0
   12.4123    0.6472   -9.5303 H   0  0
   13.8771    3.4456  -11.5556 H   0  0
   14.5600    2.4449   -9.8944 H   0  0
   13.0644    6.1326   -9.0209 H   0  0
   10.0334    4.0926  -10.3949 H   0  0
   10.5364    5.6381  -11.0001 H   0  0
   12.4099    3.3186  -13.7044 H   0  0
   10.1843    1.8092  -10.6347 H   0  0
   12.3541    1.9289   -5.3315 H   0  0
   13.5858    1.4505   -6.4291 H   0  0
   14.7781    4.1822   -5.9978 H   0  0
   10.4285    2.1568  -13.5615 H   0  0
   14.4660    6.0944   -7.4528 H   0  0
   13.1679    6.6539   -6.4904 H   0  0
   11.4931    5.2168   -6.0429 H   0  0
   10.8852    4.1416   -7.1753 H   0  0
   12.3774   -0.1432   -7.6980 H   0  0
   10.7047    0.1343   -8.1841 H   0  0
   15.9616    0.5603   -9.7181 H   0  0
   14.4473   -0.3617   -9.7342 H   0  0
   15.6103   -0.5901   -8.4233 H   0  0
   10.1126    0.0714   -5.6753 H   0  0
   11.8061   -0.3625   -5.3808 H   0  0
   10.7799   -1.4198   -6.3164 H   0  0
   12.2078    7.9988   -8.2348 H   0  0
   10.7287    7.8624   -7.2692 H   0  0
   10.6322    7.9105   -9.0368 H   0  0
    8.2836    2.6667  -14.3696 H   0  0
    7.8583    4.0359  -13.3139 H   0  0
    6.9277    2.5472  -13.2424 H   0  0
    9.4343    3.7939   -3.7185 H   0  0
    9.5983    5.2016   -4.7625 H   0  0
   10.9093    4.7754   -3.6942 H   0  0
  1 17  1  0
  2 18  1  0
  2 31  1  0
  3 20  1  0
  3 33  1  0
  4 22  1  0
  5 23  1  0
  6 24  1  0
  7 27  1  0
  7 34  1  0
  8 26  1  0
  9 29  1  0
  9 35  1  0
 10 14  1  0
 10 25  1  0
 10 30  1  0
 11 12  1  0
 11 13  1  0
 11 14  1  0
 11 20  1  0
 12 18  1  0
 12 19  1  0
 13 16  1  0
 13 21  1  0
 14 15  1  0
 15 17  1  0
 15 18  1  0
 16 17  1  0
 16 23  1  0
 17 24  1  0
 19 25  1  0
 19 26  1  0
 19 29  1  0
 20 28  1  0
 21 22  1  0
 22 23  1  0
 22 27  1  0
 24 27  1  0
 26 28  1  0
 30 32  1  0
  1 36  1  0
  4 37  1  0
  5 38  1  0
  6 39  1  0
  8 40  1  0
 10 41  1  0
 12 42  1  0
 13 43  1  0
 14 44  1  0
 15 45  1  0
 16 46  1  0
 18 47  1  0
 20 48  1  0
 21 49  1  0
 21 50  1  0
 23 51  1  0
 24 52  1  0
 25 53  1  0
 25 54  1  0
 26 55  1  0
 27 56  1  0
 28 57  1  0
 28 58  1  0
 29 59  1  0
 29 60  1  0
 30 61  1  0
 30 62  1  0
 31 63  1  0
 31 64  1  0
 31 65  1  0
 32 66  1  0
 32 67  1  0
 32 68  1  0
 33 69  1  0
 33 70  1  0
 33 71  1  0
 34 72  1  0
 34 73  1  0
 34 74  1  0
 35 75  1  0
 35 76  1  0
 35 77  1  0
M  CHG  1  10   1
M  END
> <Name>
10511

> <Binding Energy>
-62.734

> <Ligand Energy>
293.373

> <Protein Energy>
-7801.1566

> <Complex Energy>
-7570.5177

> <Complex Entropy>
-31.4884

> <Protein Entropy>
-31.4717

> <Ligand Entropy>
-20.446

> <Entropic Energy>
20.4293

> <AbsoluteEnergy>
210.545

> <ConfNumber>
17

> <Ionization pH>
7.5

> <IonizationIndex>
1

> <MOL_NUMBER>
133

> <NumberOfIonizations>
1

> <NumberOfStereoisomers>
128

> <NumberOfTautomers>
1

> <PUBCHEM_ATOM_DEF_STEREO_COUNT>
6

> <PUBCHEM_ATOM_UDEF_STEREO_COUNT>
9

> <PUBCHEM_BONDANNOTATIONS>
17  1  5
11  20  3
12  36  5
13  37  5
14  38  6
15  18  3
16  40  5
19  29  3
18  2  3
20  3  3
22  4  5
23  5  3
24  6  3
27  7  3
26  8  3

> <PUBCHEM_BOND_DEF_STEREO_COUNT>
0

> <PUBCHEM_BOND_UDEF_STEREO_COUNT>
0

> <PUBCHEM_CACTVS_COMPLEXITY>
878

> <PUBCHEM_CACTVS_HBOND_ACCEPTOR>
10

> <PUBCHEM_CACTVS_HBOND_DONOR>
5

> <PUBCHEM_CACTVS_ROTATABLE_BOND>
6

> <PUBCHEM_CACTVS_SUBSKEYS>
AAADcfB6PAAAAAAAAAAAAAAAAAAAAYMAAAA8YMEAB4gWAGAAAAAAHgAACAAAD3zhgAYCAAMABgAAAAAAAAAAAAAAAAAAAAAIAAABEAIAgAAEQAAHAACDAAHw8P8PgAAAAAAAAADSAAaUADSAAaEADSAAAA==

> <PUBCHEM_CACTVS_TAUTO_COUNT>
-1

> <PUBCHEM_CACTVS_TPSA>
141

> <PUBCHEM_COMPONENT_COUNT>
1

> <PUBCHEM_COMPOUND_CANONICALIZED>
1

> <PUBCHEM_COMPOUND_CID>
10511

> <PUBCHEM_COORDINATE_TYPE>
1
5
255

> <PUBCHEM_EXACT_MASS>
499.27813189

> <PUBCHEM_HEAVY_ATOM_COUNT>
35

> <PUBCHEM_ISOTOPIC_ATOM_COUNT>
0

> <PUBCHEM_IUPAC_CAS_NAME>
(2R,3R,5R,8R,10R,17S)-11-ethyl-6,16,18-trimethoxy-13-(methoxymethyl)-11-azahexacyclo[7.7.2.12,5.01,10.03,8.013,17]nonadecane-4,5,7,8,14-pentol

> <PUBCHEM_IUPAC_INCHI>
InChI=1S/C25H41NO9/c1-6-26-9-22(10-32-2)12(27)7-13(33-3)24-11-8-23(30)19(28)14(11)25(31,20(29)21(23)35-5)15(18(24)26)16(34-4)17(22)24/h11-21,27-31H,6-10H2,1-5H3/t11-,12?,13?,14-,15?,16?,17-,18-,19?,20
?,21?,22?,23-,24?,25-/m1/s1

> <PUBCHEM_IUPAC_INCHIKEY>
SQMGCPHFHQGPIF-RCXDTZIBSA-N

> <PUBCHEM_IUPAC_NAME>
(2R,3R,5R,8R,10R,17S)-11-ethyl-6,16,18-trimethoxy-13-(methoxymethyl)-11-azahexacyclo[7.7.2.12,5.01,10.03,8.013,17]nonadecane-4,5,7,8,14-pentol

> <PUBCHEM_IUPAC_NAME_MARKUP>
(2<I>R</I>,3<I>R</I>,5<I>R</I>,8<I>R</I>,10<I>R</I>,17<I>S</I>)-11-ethyl-6,16,18-trimethoxy-13-(methoxymethyl)-11-azahexacyclo[7.7.2.1<SUP>2,5</SUP>.0<SUP>1,10</SUP>.0<SUP>3,8</SUP>.0<SUP>13,17</SUP>]
nonadecane-4,5,7,8,14-pentol

> <PUBCHEM_IUPAC_OPENEYE_NAME>
(2R,3R,5R,8R,10R,17S)-11-ethyl-6,16,18-trimethoxy-13-(methoxymethyl)-11-azahexacyclo[7.7.2.12,5.01,10.03,8.013,17]nonadecane-4,5,7,8,14-pentol

> <PUBCHEM_IUPAC_SYSTEMATIC_NAME>
(2R,3R,5R,8R,10R,17S)-11-ethyl-6,16,18-trimethoxy-13-(methoxymethyl)-11-azahexacyclo[7.7.2.12,5.01,10.03,8.013,17]nonadecane-4,5,7,8,14-pentol

> <PUBCHEM_IUPAC_TRADITIONAL_NAME>
(2R,3R,5R,8R,10R,17S)-11-ethyl-6,16,18-trimethoxy-13-(methoxymethyl)-11-azahexacyclo[7.7.2.12,5.01,10.03,8.013,17]nonadecane-4,5,7,8,14-pentol

> <PUBCHEM_MOLECULAR_FORMULA>
C25H41NO9

> <PUBCHEM_MOLECULAR_WEIGHT>
499.6

> <PUBCHEM_MONOISOTOPIC_WEIGHT>
499.27813189

> <PUBCHEM_OPENEYE_CAN_SMILES>
CCN1CC2(C(CC(C34C2C(C(C31)C5(C6C4CC(C6O)(C(C5O)OC)O)O)OC)OC)O)COC

> <PUBCHEM_OPENEYE_ISO_SMILES>
CCN1CC2([C@H]3C(C4[C@@H]1C3([C@@H]5C[C@]6(C([C@@H]5[C@@]4(C(C6OC)O)O)O)O)C(CC2O)OC)OC)COC

> <PUBCHEM_TOTAL_CHARGE>
0

> <PUBCHEM_XLOGP3_AA>
-2.5

> <RelativeEnergy>
130.425

> <StereoisomerIndex>
8

> <TautomerIndex>
1

> <POSE_NUMBER>
1

> <LibDockScore>
119.5714

> <HotSpots>
14.01,6.27,-5.46,P,57,8
10.81,8.27,-8.46,A,35,33
7.61,3.27,-13.26,A,25,34

> <-In-Situ Starting Energy>
-1144.98675

> <-In-Situ Final Energy>
-227.534879

> <In-Situ Gradient>
0.0008031713223

$$$$
15063
  SciTegic09142310043D

 71 75  0  0  0  0            999 V2000
   14.3816    1.8531  -11.3603 O   0  0  0  1  0  0
   11.8678    5.7934  -10.0103 O   0  0  0  1  0  0
   14.9805    2.1863  -13.5384 O   0  0  0  1  0  0
   17.0130    2.8066  -12.0674 O   0  0  0  1  0  0
   12.8817    1.4871  -14.8190 O   0  0  0  1  0  0
   13.6915    4.3160   -8.0073 O   0  0  0  1  0  0
   10.7956    0.0843  -12.3760 O   0  0  0  1  0  0
   12.6739    7.3831   -8.6868 O   0  0  0  1  0  0
   13.5748    5.8495   -6.3545 O   0  0  0  1  0  0
   13.1594    2.3683   -6.5442 O   0  0  0  1  0  0
   13.1996    3.8328  -10.8260 C   0  0  3  1  0  0
   13.3497    3.6583  -12.3411 C   0  0  2  1  0  0
   12.1046    3.0010  -13.0577 C   0  0  2  1  0  0
   14.3443    4.7515  -10.3115 C   0  0  2  1  0  0
   14.6422    2.8287  -12.3412 C   0  0  1  1  0  0
   11.8223    4.4110  -10.3560 C   0  0  2  1  0  0
   10.8139    3.0490  -12.1704 C   0  0  1  1  0  0
   13.4565    2.3668  -10.4129 C   0  0  0  1  0  0
   15.7703    4.1678  -10.5004 C   0  0  2  1  0  0
   15.8849    3.6553  -11.9456 C   0  0  1  1  0  0
   10.7249    4.3524  -11.4148 C   0  0  0  1  0  0
   12.3093    1.5138  -13.5273 C   0  0  1  1  0  0
   14.0116    5.3573   -8.9369 C   0  0  1  1  0  0
   11.8559    3.9034  -14.3061 C   0  0  0  1  0  0
    9.6245    2.6493  -13.0084 C   0  0  0  1  0  0
   10.9931    0.7269  -13.6277 C   0  0  2  1  0  0
   16.2612    3.1132   -9.4801 C   0  0  0  1  0  0
   12.7807    6.2734   -9.1823 C   0  0  0  1  0  0
    9.8174    1.6400  -13.8618 C   0  0  0  1  0  0
    8.4108    3.5352  -13.0312 C   0  0  0  1  0  0
   13.4370    4.7119   -6.7688 C   0  0  0  1  0  0
   12.9351    3.5791   -5.8742 C   0  0  1  1  0  0
   11.4201    3.7081   -5.6788 C   0  0  0  1  0  0
   13.7420    3.5703   -4.5770 C   0  0  0  1  0  0
   10.9788    4.9110   -4.8237 C   0  0  0  1  0  0
   15.5251    1.4585  -13.2510 H   0  0
   17.2102    2.6598  -12.9866 H   0  0
   13.7910    1.7827  -14.7598 H   0  0
    9.8652    0.0213  -12.1870 H   0  0
   13.8950    2.5581   -7.1116 H   0  0
   13.5511    4.6323  -12.7880 H   0  0
   14.3561    5.6109  -10.9880 H   0  0
   11.4894    3.8633   -9.4710 H   0  0
   10.8535    2.3041  -11.3804 H   0  0
   13.8518    2.2627   -9.4148 H   0  0
   12.5627    1.7495  -10.4362 H   0  0
   16.4617    5.0056  -10.3962 H   0  0
   15.9779    4.5270  -12.6062 H   0  0
    9.7630    4.4383  -10.9145 H   0  0
   10.7844    5.1991  -12.0884 H   0  0
   12.9132    0.9196  -12.8380 H   0  0
   14.8365    5.9665   -8.5624 H   0  0
   12.7076    3.9379  -14.9814 H   0  0
   11.6588    4.9297  -14.0314 H   0  0
   10.9972    3.6176  -14.8978 H   0  0
   11.0628   -0.0438  -14.3980 H   0  0
   16.0243    2.0888   -9.7543 H   0  0
   15.8668    3.2701   -8.4864 H   0  0
   17.3463    3.1279   -9.4087 H   0  0
    9.1618    1.4716  -14.6946 H   0  0
    8.6835    4.5896  -13.0287 H   0  0
    7.7891    3.3264  -12.1719 H   0  0
    7.8069    3.3434  -13.9172 H   0  0
   10.9764    3.7649   -6.6696 H   0  0
   11.0334    2.7833   -5.2566 H   0  0
   14.7885    3.3390   -4.7643 H   0  0
   13.3602    2.7970   -3.9258 H   0  0
   13.6992    4.5230   -4.0478 H   0  0
   11.1864    5.8521   -5.3336 H   0  0
   11.4945    4.9371   -3.8645 H   0  0
    9.9127    4.8757   -4.6024 H   0  0
  1 15  1  0
  1 18  1  0
  2 16  1  0
  2 28  1  0
  3 15  1  0
  4 20  1  0
  5 22  1  0
  6 23  1  0
  6 31  1  0
  7 26  1  0
  8 28  2  0
  9 31  2  0
 10 32  1  0
 11 12  1  0
 11 14  1  0
 11 16  1  0
 11 18  1  0
 12 13  1  0
 12 15  1  0
 13 17  1  0
 13 22  1  0
 13 24  1  0
 14 19  1  0
 14 23  1  0
 15 20  1  0
 16 21  1  0
 17 21  1  0
 17 25  1  0
 19 20  1  0
 19 27  1  0
 22 26  1  0
 23 28  1  0
 25 29  2  0
 25 30  1  0
 26 29  1  0
 31 32  1  0
 32 33  1  0
 32 34  1  0
 33 35  1  0
  3 36  1  0
  4 37  1  0
  5 38  1  0
  7 39  1  0
 10 40  1  0
 12 41  1  0
 14 42  1  0
 16 43  1  0
 17 44  1  0
 18 45  1  0
 18 46  1  0
 19 47  1  0
 20 48  1  0
 21 49  1  0
 21 50  1  0
 22 51  1  0
 23 52  1  0
 24 53  1  0
 24 54  1  0
 24 55  1  0
 26 56  1  0
 27 57  1  0
 27 58  1  0
 27 59  1  0
 29 60  1  0
 30 61  1  0
 30 62  1  0
 30 63  1  0
 33 64  1  0
 33 65  1  0
 34 66  1  0
 34 67  1  0
 34 68  1  0
 35 69  1  0
 35 70  1  0
 35 71  1  0
M  END
> <Name>
15063

> <Binding Energy>
-67.7018

> <Ligand Energy>
71.7079

> <Protein Energy>
-7801.1566

> <Complex Energy>
-7797.1505

> <Complex Entropy>
-31.4891

> <Protein Entropy>
-31.4717

> <Ligand Entropy>
-20.4871

> <Entropic Energy>
20.4697

> <AbsoluteEnergy>
78.2741

> <ConfNumber>
33

> <IonizationIndex>
1

> <MOL_NUMBER>
318

> <NumberOfIonizations>
1

> <NumberOfStereoisomers>
256

> <NumberOfTautomers>
1

> <PUBCHEM_ATOM_DEF_STEREO_COUNT>
6

> <PUBCHEM_ATOM_UDEF_STEREO_COUNT>
7

> <PUBCHEM_BONDANNOTATIONS>
32  10  3
11  18  3
12  13  3
14  19  3
16  21  3
17  21  3
15  3  5
20  4  5
22  5  6
23  6  3
26  7  5

> <PUBCHEM_BOND_DEF_STEREO_COUNT>
0

> <PUBCHEM_BOND_UDEF_STEREO_COUNT>
0

> <PUBCHEM_CACTVS_COMPLEXITY>
981

> <PUBCHEM_CACTVS_HBOND_ACCEPTOR>
10

> <PUBCHEM_CACTVS_HBOND_DONOR>
5

> <PUBCHEM_CACTVS_ROTATABLE_BOND>
4

> <PUBCHEM_CACTVS_SUBSKEYS>
AAADcfB4PAAAAAAAAAAAAAAAAAAAASAAAAA0YIEABIAAAEiQAAAAGgAACAAAD1SggAICCAAABgCIAiDSCAIAAAAgAAAACAFAAAgRFBIAAQQCUAAFwAAPEAPI7PzPgAAAAAAAAADAAAYAADCAAAAAAAAAAA==

> <PUBCHEM_CACTVS_TAUTO_COUNT>
-1

> <PUBCHEM_CACTVS_TPSA>
163

> <PUBCHEM_COMPONENT_COUNT>
1

> <PUBCHEM_COMPOUND_CANONICALIZED>
1

> <PUBCHEM_COMPOUND_CID>
15063

> <PUBCHEM_COORDINATE_TYPE>
1
5
255

> <PUBCHEM_EXACT_MASS>
496.23084734

> <PUBCHEM_HEAVY_ATOM_COUNT>
35

> <PUBCHEM_ISOTOPIC_ATOM_COUNT>
0

> <PUBCHEM_IUPAC_CAS_NAME>
2-hydroxy-2-methylbutanoic acid [(4S,5R,6R,16S,17S,18S)-4,5,16,17-tetrahydroxy-6,14,18-trimethyl-9-oxo-3,10-dioxapentacyclo[9.8.0.01,7.04,19.013,18]nonadec-14-en-8-yl] ester

> <PUBCHEM_IUPAC_INCHI>
InChI=1S/C25H36O10/c1-6-22(4,31)21(30)35-16-15-11(3)17(27)25(32)20-23(5)12(10(2)7-13(26)18(23)28)8-14(34-19(16)29)24(15,20)9-33-25/h7,11-18,20,26-28,31-32H,6,8-9H2,1-5H3/t11-,12?,13+,14?,15?,16?,17-,1
8-,20?,22?,23-,24?,25-/m1/s1

> <PUBCHEM_IUPAC_INCHIKEY>
LZKVXMYVBSNXER-DCNWDFLTSA-N

> <PUBCHEM_IUPAC_NAME>
[(4S,5R,6R,16S,17S,18S)-4,5,16,17-tetrahydroxy-6,14,18-trimethyl-9-oxo-3,10-dioxapentacyclo[9.8.0.01,7.04,19.013,18]nonadec-14-en-8-yl] 2-hydroxy-2-methylbutanoate

> <PUBCHEM_IUPAC_NAME_MARKUP>
[(4<I>S</I>,5<I>R</I>,6<I>R</I>,16<I>S</I>,17<I>S</I>,18<I>S</I>)-4,5,16,17-tetrahydroxy-6,14,18-trimethyl-9-oxo-3,10-dioxapentacyclo[9.8.0.0<SUP>1,7</SUP>.0<SUP>4,19</SUP>.0<SUP>13,18</SUP>]nonadec-1
4-en-8-yl] 2-hydroxy-2-methylbutanoate

> <PUBCHEM_IUPAC_OPENEYE_NAME>
[(4S,5R,6R,16S,17S,18S)-4,5,16,17-tetrahydroxy-6,14,18-trimethyl-9-oxo-3,10-dioxapentacyclo[9.8.0.01,7.04,19.013,18]nonadec-14-en-8-yl] 2-hydroxy-2-methyl-butanoate

> <PUBCHEM_IUPAC_SYSTEMATIC_NAME>
[(4S,5R,6R,16S,17S,18S)-6,14,18-trimethyl-4,5,16,17-tetrakis(oxidanyl)-9-oxidanylidene-3,10-dioxapentacyclo[9.8.0.01,7.04,19.013,18]nonadec-14-en-8-yl] 2-methyl-2-oxidanyl-butanoate

> <PUBCHEM_IUPAC_TRADITIONAL_NAME>
2-hydroxy-2-methyl-butyric acid [(4S,5R,6R,16S,17S,18S)-4,5,16,17-tetrahydroxy-9-keto-6,14,18-trimethyl-3,10-dioxapentacyclo[9.8.0.01,7.04,19.013,18]nonadec-14-en-8-yl] ester

> <PUBCHEM_MOLECULAR_FORMULA>
C25H36O10

> <PUBCHEM_MOLECULAR_WEIGHT>
496.5

> <PUBCHEM_MONOISOTOPIC_WEIGHT>
496.23084734

> <PUBCHEM_OPENEYE_CAN_SMILES>
CCC(C)(C(=O)OC1C2C(C(C3(C4C2(CO3)C(CC5C4(C(C(C=C5C)O)O)C)OC1=O)O)O)C)O

> <PUBCHEM_OPENEYE_ISO_SMILES>
CCC(C)(C(=O)OC1C2[C@H]([C@H]([C@@]3(C4C2(CO3)C(CC5[C@@]4([C@@H]([C@H](C=C5C)O)O)C)OC1=O)O)O)C)O

> <PUBCHEM_TOTAL_CHARGE>
0

> <PUBCHEM_XLOGP3_AA>
-0.2

> <RelativeEnergy>
12.1108

> <StereoisomerIndex>
48

> <TautomerIndex>
1

> <POSE_NUMBER>
1

> <LibDockScore>
130.275

> <HotSpots>
14.01,6.27,-5.46,P,57,9
9.21,3.67,-12.86,A,26,30
13.41,5.07,-3.25,A,44,34

> <-In-Situ Starting Energy>
-527.281801

> <-In-Situ Final Energy>
-76.8382793

> <In-Situ Gradient>
0.0008392488171

$$$$
15730308
  SciTegic09142310043D

 70 71  0  0  0  0            999 V2000
    9.6341    8.4538   -6.5513 O   0  0  0  1  0  0
   15.2079    3.1552  -12.8867 O   0  0  0  1  0  0
    6.4448   11.5958    0.0204 O   0  0  0  1  0  0
   15.0287   -1.2637   -8.5306 O   0  0  0  1  0  0
    4.9314    9.4614    0.6575 O   0  0  0  1  0  0
   16.5202   -0.1239   -6.5641 O   0  0  0  1  0  0
   12.7578    4.3530   -9.4868 N   0  3  0  1  0  0
   10.0070    6.4705   -5.3964 N   0  0  0  1  0  0
   13.9431    1.2845  -12.6076 N   0  0  0  1  0  0
   13.1342    5.9777   -7.6533 C   0  0  0  1  0  0
   11.6680    6.3567   -7.3688 C   0  0  0  1  0  0
   13.4162    5.6109   -9.1167 C   0  0  0  1  0  0
   13.1926    3.7885  -10.7662 C   0  0  0  1  0  0
   12.3709    2.5447  -11.1430 C   0  0  0  1  0  0
   11.2511    5.9132   -5.9543 C   0  0  0  1  0  0
   12.6723    1.9997  -12.5480 C   0  0  0  1  0  0
    8.1947    7.8676   -4.6985 C   0  0  0  1  0  0
    9.3612    7.6406   -5.6739 C   0  0  0  1  0  0
   16.3143    1.0103  -13.0254 C   0  0  0  1  0  0
    8.4585    9.0638   -3.7536 C   0  0  0  1  0  0
   17.4502    1.2717  -12.0149 C   0  0  0  1  0  0
   15.1030    1.9368  -12.8276 C   0  0  0  1  0  0
    7.4316    9.2281   -2.6527 C   0  0  0  1  0  0
   17.1676    0.9093  -10.5729 C   0  0  0  1  0  0
    7.3028   10.4153   -1.9333 C   0  0  0  1  0  0
    6.6916    8.1426   -2.2193 C   0  0  0  1  0  0
   16.1902   -0.0131  -10.2056 C   0  0  0  1  0  0
   17.9547    1.4696   -9.5698 C   0  0  0  1  0  0
    6.5096   10.4766   -0.7898 C   0  0  0  1  0  0
   15.9946   -0.3423   -8.8720 C   0  0  0  1  0  0
    5.8415    8.2163   -1.1437 C   0  0  0  1  0  0
   17.7626    1.1441   -8.2311 C   0  0  0  1  0  0
    5.7742    9.3748   -0.4129 C   0  0  0  1  0  0
   16.7691    0.2348   -7.8780 C   0  0  0  1  0  0
    7.0639   11.4615    0.7464 H   0  0
   15.0157   -1.3657   -7.5761 H   0  0
    4.8138   10.3853    0.8371 H   0  0
   17.2430    0.1574   -6.0036 H   0  0
   11.7553    4.4929   -9.5043 H   0  0
   12.9243    3.6666   -8.7625 H   0  0
    9.6438    5.9903   -4.5991 H   0  0
   13.9572    0.2858  -12.5651 H   0  0
   13.7702    6.8131   -7.3542 H   0  0
   13.4409    5.1428   -7.0214 H   0  0
   11.5595    7.4317   -7.5019 H   0  0
   11.0115    5.8973   -8.1021 H   0  0
   14.4917    5.4847   -9.2565 H   0  0
   13.0844    6.3966   -9.7976 H   0  0
   13.0905    4.5574  -11.5340 H   0  0
   14.2516    3.5440  -10.6773 H   0  0
   11.3109    2.8002  -11.1046 H   0  0
   12.5190    1.7544  -10.4056 H   0  0
   12.0371    6.1202   -5.2316 H   0  0
   11.1359    4.8300   -5.9293 H   0  0
   11.9161    1.2712  -12.8427 H   0  0
   12.6772    2.7877  -13.3049 H   0  0
    7.2601    8.0069   -5.2267 H   0  0
    8.0535    6.9303   -4.1774 H   0  0
   16.0051   -0.0348  -13.0273 H   0  0
   16.6909    1.2049  -14.0296 H   0  0
    9.4381    8.9599   -3.2837 H   0  0
    8.4895    9.9761   -4.3431 H   0  0
   18.3292    0.7056  -12.3244 H   0  0
   17.7405    2.3236  -12.0625 H   0  0
    7.8671   11.2744   -2.2248 H   0  0
    6.8817    7.1537   -2.5718 H   0  0
   15.5749   -0.5054  -10.9395 H   0  0
   18.7432    2.1569   -9.8394 H   0  0
    5.2688    7.3517   -0.8726 H   0  0
   18.4085    1.6084   -7.4976 H   0  0
  1 18  2  0
  2 22  2  0
  3 29  1  0
  4 30  1  0
  5 33  1  0
  6 34  1  0
  7 12  1  0
  7 13  1  0
  8 15  1  0
  8 18  1  0
  9 16  1  0
  9 22  1  0
 10 11  1  0
 10 12  1  0
 11 15  1  0
 13 14  1  0
 14 16  1  0
 17 18  1  0
 17 20  1  0
 19 21  1  0
 19 22  1  0
 20 23  1  0
 21 24  1  0
 23 25  2  0
 23 26  1  0
 24 27  2  0
 24 28  1  0
 25 29  1  0
 26 31  2  0
 27 30  1  0
 28 32  2  0
 29 33  2  0
 30 34  2  0
 31 33  1  0
 32 34  1  0
  3 35  1  0
  4 36  1  0
  5 37  1  0
  6 38  1  0
  7 39  1  0
  7 40  1  0
  8 41  1  0
  9 42  1  0
 10 43  1  0
 10 44  1  0
 11 45  1  0
 11 46  1  0
 12 47  1  0
 12 48  1  0
 13 49  1  0
 13 50  1  0
 14 51  1  0
 14 52  1  0
 15 53  1  0
 15 54  1  0
 16 55  1  0
 16 56  1  0
 17 57  1  0
 17 58  1  0
 19 59  1  0
 19 60  1  0
 20 61  1  0
 20 62  1  0
 21 63  1  0
 21 64  1  0
 25 65  1  0
 26 66  1  0
 27 67  1  0
 28 68  1  0
 31 69  1  0
 32 70  1  0
M  CHG  1   7   1
M  END
> <Name>
15730308

> <Binding Energy>
-128.7239

> <Ligand Energy>
-29.3098

> <Protein Energy>
-7801.1566

> <Complex Energy>
-7959.1904

> <Complex Entropy>
-31.4877

> <Protein Entropy>
-31.4717

> <Ligand Entropy>
-21.1493

> <Entropic Energy>
21.1332

> <AbsoluteEnergy>
39.1734

> <ConfNumber>
189

> <Ionization pH>
7.5

> <IonizationIndex>
1

> <MOL_NUMBER>
527

> <NumberOfIonizations>
1

> <NumberOfStereoisomers>
1

> <NumberOfTautomers>
1

> <PUBCHEM_ATOM_DEF_STEREO_COUNT>
0

> <PUBCHEM_ATOM_UDEF_STEREO_COUNT>
0

> <PUBCHEM_BONDANNOTATIONS>
23  25  8
23  26  8
24  27  8
24  28  8
25  29  8
26  31  8
27  30  8
28  32  8
29  33  8
30  34  8
31  33  8
32  34  8

> <PUBCHEM_BOND_DEF_STEREO_COUNT>
0

> <PUBCHEM_BOND_UDEF_STEREO_COUNT>
0

> <PUBCHEM_CACTVS_COMPLEXITY>
593

> <PUBCHEM_CACTVS_HBOND_ACCEPTOR>
7

> <PUBCHEM_CACTVS_HBOND_DONOR>
7

> <PUBCHEM_CACTVS_ROTATABLE_BOND>
15

> <PUBCHEM_CACTVS_SUBSKEYS>
AAADcfB7OAAAAAAAAAAAAAAAAAAAAAAAAAAwYAAAAAAAAAABQAAAHgAQCAAADATBmAQwBoLAAgCIAiFSEAACAAAgIAAIiIEOiIgJJjKC0RKEcAEk1hGJmAeYyLCOIAABAAAAQABAAAIAAACAAAAAAAAAAA==

> <PUBCHEM_CACTVS_TAUTO_COUNT>
-1

> <PUBCHEM_CACTVS_TPSA>
151

> <PUBCHEM_COMPONENT_COUNT>
1

> <PUBCHEM_COMPOUND_CANONICALIZED>
1

> <PUBCHEM_COMPOUND_CID>
15730308

> <PUBCHEM_COORDINATE_TYPE>
1
5
255

> <PUBCHEM_EXACT_MASS>
473.25258584

> <PUBCHEM_HEAVY_ATOM_COUNT>
34

> <PUBCHEM_ISOTOPIC_ATOM_COUNT>
0

> <PUBCHEM_IUPAC_CAS_NAME>
3-(3,4-dihydroxyphenyl)-N-[4-[3-[[3-(3,4-dihydroxyphenyl)-1-oxopropyl]amino]propylamino]butyl]propanamide

> <PUBCHEM_IUPAC_INCHI>
InChI=1S/C25H35N3O6/c29-20-8-4-18(16-22(20)31)6-10-24(33)27-14-2-1-12-26-13-3-15-28-25(34)11-7-19-5-9-21(30)23(32)17-19/h4-5,8-9,16-17,26,29-32H,1-3,6-7,10-15H2,(H,27,33)(H,28,34)

> <PUBCHEM_IUPAC_INCHIKEY>
RNEHQZRKZJSYOL-UHFFFAOYSA-N

> <PUBCHEM_IUPAC_NAME>
3-(3,4-dihydroxyphenyl)-N-[4-[3-[3-(3,4-dihydroxyphenyl)propanoylamino]propylamino]butyl]propanamide

> <PUBCHEM_IUPAC_NAME_MARKUP>
3-(3,4-dihydroxyphenyl)-<I>N</I>-[4-[3-[3-(3,4-dihydroxyphenyl)propanoylamino]propylamino]butyl]propanamide

> <PUBCHEM_IUPAC_OPENEYE_NAME>
3-(3,4-dihydroxyphenyl)-N-[4-[3-[3-(3,4-dihydroxyphenyl)propanoylamino]propylamino]butyl]propanamide

> <PUBCHEM_IUPAC_SYSTEMATIC_NAME>
3-[3,4-bis(oxidanyl)phenyl]-N-[4-[3-[3-[3,4-bis(oxidanyl)phenyl]propanoylamino]propylamino]butyl]propanamide

> <PUBCHEM_IUPAC_TRADITIONAL_NAME>
3-(3,4-dihydroxyphenyl)-N-[4-[3-[3-(3,4-dihydroxyphenyl)propanoylamino]propylamino]butyl]propionamide

> <PUBCHEM_MOLECULAR_FORMULA>
C25H35N3O6

> <PUBCHEM_MOLECULAR_WEIGHT>
473.6

> <PUBCHEM_MONOISOTOPIC_WEIGHT>
473.25258584

> <PUBCHEM_OPENEYE_CAN_SMILES>
C1=CC(=C(C=C1CCC(=O)NCCCCNCCCNC(=O)CCC2=CC(=C(C=C2)O)O)O)O

> <PUBCHEM_OPENEYE_ISO_SMILES>
C1=CC(=C(C=C1CCC(=O)NCCCCNCCCNC(=O)CCC2=CC(=C(C=C2)O)O)O)O

> <PUBCHEM_TOTAL_CHARGE>
0

> <PUBCHEM_XLOGP3_AA>
1.9

> <RelativeEnergy>
6.85906

> <StereoisomerIndex>
1

> <TautomerIndex>
1

> <POSE_NUMBER>
1

> <LibDockScore>
161.527

> <HotSpots>
4.21,9.07,-0.26,P,84,5
9.01,2.67,-14.05,A,21,16
8.41,8.07,-4.86,A,38,17

> <-In-Situ Starting Energy>
-1028.3328

> <-In-Situ Final Energy>
73.3058522

> <In-Situ Gradient>
0.05066897517

$$$$
176596
  SciTegic09142310043D

117123  0  0  0  0            999 V2000
   15.8188   -0.5290  -16.3095 O   0  0  0  1  0  0
   26.8520   -5.3424  -18.7745 O   0  0  0  1  0  0
   25.0780   -6.3700  -17.8958 O   0  0  0  1  0  0
   14.2052   -1.6611  -15.0837 O   0  0  0  1  0  0
   15.0534    1.8826  -15.0698 O   0  0  0  1  0  0
   12.6627    1.8832  -13.7124 O   0  0  0  1  0  0
   11.8085   -0.5808  -12.4896 O   0  0  0  1  0  0
   13.1265   -4.1406  -13.6090 O   0  5  0  1  0  0
   11.4447   -3.0327  -14.3570 O   0  0  0  1  0  0
   10.9039    2.1371  -12.3002 O   0  0  0  1  0  0
   13.6768    4.1590  -11.4239 O   0  0  0  1  0  0
   11.8791    5.9714  -11.8430 O   0  0  0  1  0  0
    9.1594    5.0194  -12.4150 O   0  0  0  1  0  0
   21.9715   -2.8524  -17.6096 C   0  0  2  1  0  0
   20.8270   -3.3192  -16.6530 C   0  0  1  1  0  0
   19.3388   -2.9798  -17.0490 C   0  0  2  1  0  0
   23.3710   -2.9281  -16.8447 C   0  0  1  1  0  0
   19.2890   -1.4675  -17.4255 C   0  0  2  1  0  0
   21.7010   -1.4073  -18.1010 C   0  0  0  1  0  0
   17.8718   -0.8267  -17.5630 C   0  0  0  1  0  0
   20.2677   -1.1693  -18.5771 C   0  0  0  1  0  0
   23.5018   -4.2325  -16.0567 C   0  0  0  1  0  0
   21.0445   -4.7862  -16.2427 C   0  0  0  1  0  0
   18.4493   -3.2033  -15.7989 C   0  0  0  1  0  0
   24.8897   -4.7189  -15.6551 C   0  0  1  1  0  0
   24.5301   -2.8009  -17.8690 C   0  0  0  1  0  0
   26.0300   -4.4761  -16.6825 C   0  0  1  1  0  0
   21.9885   -3.7701  -18.8604 C   0  0  0  1  0  0
   17.1073   -1.1067  -16.2483 C   0  0  2  1  0  0
   25.9129   -3.0574  -17.2690 C   0  0  0  1  0  0
   18.7846   -3.8904  -18.1812 C   0  0  0  1  0  0
   17.0405   -2.6047  -15.9230 C   0  0  0  1  0  0
   22.4772   -5.0950  -15.9313 C   0  0  0  1  0  0
   23.5221   -1.7757  -15.8184 C   0  0  0  1  0  0
   25.3415   -4.2417  -14.2630 C   0  0  0  1  0  0
   27.4199   -4.6408  -16.0042 C   0  0  0  1  0  0
   26.4552   -5.1577  -13.6963 C   0  0  0  1  0  0
   17.9991    0.7060  -17.7091 C   0  0  0  1  0  0
   17.0810   -1.3193  -18.7924 C   0  0  0  1  0  0
   27.3840   -5.6382  -14.8393 C   0  0  0  1  0  0
   25.9061   -5.5163  -17.8300 C   0  0  0  1  0  0
   27.2673   -4.3767  -12.6487 C   0  0  0  1  0  0
   25.8318   -6.3850  -13.0098 C   0  0  0  1  0  0
   15.0754   -0.5516  -15.1067 C   0  0  2  1  0  0
   14.2379    0.7230  -15.0470 C   0  0  1  1  0  0
   13.4210    0.6994  -13.7627 C   0  0  2  1  0  0
   13.4294   -1.7840  -13.9005 C   0  0  1  1  0  0
   12.5257   -0.5445  -13.7233 C   0  0  1  1  0  0
   12.6112   -3.0843  -13.9711 C   0  0  0  1  0  0
   12.2997    2.3371  -12.4325 C   0  0  2  1  0  0
   12.6663    3.8252  -12.3632 C   0  0  1  1  0  0
   11.4503    4.6240  -11.9270 C   0  0  2  1  0  0
   10.0986    2.9015  -13.1808 C   0  0  0  1  0  0
   10.3215    4.4124  -12.9442 C   0  0  1  1  0  0
   26.7661   -5.9930  -19.4569 H   0  0
   15.6769    1.7812  -15.7804 H   0  0
   11.1159    0.0767  -12.4945 H   0  0
   14.4741    3.6798  -11.6362 H   0  0
   12.6721    5.9634  -11.2971 H   0  0
    8.4916    5.1410  -13.0848 H   0  0
   20.9836   -2.7520  -15.7383 H   0  0
   19.7104   -0.9497  -16.5615 H   0  0
   22.3996   -1.1367  -18.8927 H   0  0
   21.8606   -0.6867  -17.3034 H   0  0
   20.2073   -0.1298  -18.8876 H   0  0
   20.0496   -1.7510  -19.4695 H   0  0
   20.4507   -4.9998  -15.3581 H   0  0
   20.7276   -5.4854  -17.0117 H   0  0
   18.3608   -4.2682  -15.5812 H   0  0
   18.9241   -2.7582  -14.9239 H   0  0
   24.8056   -5.8009  -15.5437 H   0  0
   24.5151   -1.8119  -18.3265 H   0  0
   24.4204   -3.5054  -18.6886 H   0  0
   21.0070   -3.9034  -19.2987 H   0  0
   22.3739   -4.7649  -18.6365 H   0  0
   22.5954   -3.3537  -19.6633 H   0  0
   17.6551   -0.6195  -15.4391 H   0  0
   26.6756   -2.9032  -18.0336 H   0  0
   26.1205   -2.3150  -16.4994 H   0  0
   19.2137   -4.8872  -18.1870 H   0  0
   18.9258   -3.4788  -19.1766 H   0  0
   17.7181   -4.0716  -18.0820 H   0  0
   16.5195   -2.7614  -14.9791 H   0  0
   16.4395   -3.1281  -16.6642 H   0  0
   22.6368   -6.0809  -15.5354 H   0  0
   22.6687   -1.6892  -15.1493 H   0  0
   23.6664   -0.8120  -16.3044 H   0  0
   24.3902   -1.8996  -15.1815 H   0  0
   24.4964   -4.2071  -13.5743 H   0  0
   25.7198   -3.2236  -14.3279 H   0  0
   28.1876   -4.9287  -16.7237 H   0  0
   27.7533   -3.6828  -15.6043 H   0  0
   18.5003    0.9963  -18.6301 H   0  0
   18.5431    1.1493  -16.8747 H   0  0
   17.0199    1.1779  -17.7612 H   0  0
   16.7450   -2.3470  -18.7072 H   0  0
   17.6698   -1.2328  -19.7052 H   0  0
   16.1765   -0.7261  -18.9338 H   0  0
   28.3914   -5.8182  -14.4623 H   0  0
   27.0423   -6.5988  -15.2278 H   0  0
   26.6309   -4.0240  -11.8365 H   0  0
   27.7515   -3.5062  -13.0916 H   0  0
   28.0480   -4.9974  -12.2086 H   0  0
   25.1942   -6.9527  -13.6870 H   0  0
   25.2236   -6.0892  -12.1584 H   0  0
   26.6025   -7.0665  -12.6488 H   0  0
   15.7444   -0.5905  -14.2436 H   0  0
   13.5527    0.7472  -15.8982 H   0  0
   14.1231    0.6717  -12.9275 H   0  0
   14.0937   -1.8447  -13.0416 H   0  0
   11.8318   -0.5191  -14.5730 H   0  0
   12.8064    1.7843  -11.6385 H   0  0
   12.9634    4.1768  -13.3586 H   0  0
   11.0976    4.2886  -10.9436 H   0  0
   10.3315    2.6375  -14.2120 H   0  0
    9.0556    2.6270  -13.0225 H   0  0
   10.6160    4.8922  -13.8860 H   0  0
  1 29  1  0
  1 44  1  0
  2 41  1  0
  3 41  2  0
  4 44  1  0
  4 47  1  0
  5 45  1  0
  6 46  1  0
  6 50  1  0
  7 48  1  0
  8 49  1  0
  9 49  2  0
 10 50  1  0
 10 53  1  0
 11 51  1  0
 12 52  1  0
 13 54  1  0
 14 15  1  0
 14 17  1  0
 14 19  1  0
 14 28  1  0
 15 16  1  0
 15 23  1  0
 16 18  1  0
 16 24  1  0
 16 31  1  0
 17 22  1  0
 17 26  1  0
 17 34  1  0
 18 20  1  0
 18 21  1  0
 19 21  1  0
 20 29  1  0
 20 38  1  0
 20 39  1  0
 22 25  1  0
 22 33  2  0
 23 33  1  0
 24 32  1  0
 25 27  1  0
 25 35  1  0
 26 30  1  0
 27 30  1  0
 27 36  1  0
 27 41  1  0
 29 32  1  0
 35 37  1  0
 36 40  1  0
 37 40  1  0
 37 42  1  0
 37 43  1  0
 44 45  1  0
 45 46  1  0
 46 48  1  0
 47 48  1  0
 47 49  1  0
 50 51  1  0
 51 52  1  0
 52 54  1  0
 53 54  1  0
  2 55  1  0
  5 56  1  0
  7 57  1  0
 11 58  1  0
 12 59  1  0
 13 60  1  0
 15 61  1  0
 18 62  1  0
 19 63  1  0
 19 64  1  0
 21 65  1  0
 21 66  1  0
 23 67  1  0
 23 68  1  0
 24 69  1  0
 24 70  1  0
 25 71  1  0
 26 72  1  0
 26 73  1  0
 28 74  1  0
 28 75  1  0
 28 76  1  0
 29 77  1  0
 30 78  1  0
 30 79  1  0
 31 80  1  0
 31 81  1  0
 31 82  1  0
 32 83  1  0
 32 84  1  0
 33 85  1  0
 34 86  1  0
 34 87  1  0
 34 88  1  0
 35 89  1  0
 35 90  1  0
 36 91  1  0
 36 92  1  0
 38 93  1  0
 38 94  1  0
 38 95  1  0
 39 96  1  0
 39 97  1  0
 39 98  1  0
 40 99  1  0
 40100  1  0
 42101  1  0
 42102  1  0
 42103  1  0
 43104  1  0
 43105  1  0
 43106  1  0
 44107  1  0
 45108  1  0
 46109  1  0
 47110  1  0
 48111  1  0
 50112  1  0
 51113  1  0
 52114  1  0
 53115  1  0
 53116  1  0
 54117  1  0
M  CHG  1   8  -1
M  END
> <Name>
176596

> <Binding Energy>
-58.5931

> <Ligand Energy>
129.2896

> <Protein Energy>
-7801.1566

> <Complex Energy>
-7730.4602

> <Complex Entropy>
-31.5076

> <Protein Entropy>
-31.4717

> <Ligand Entropy>
-22.0647

> <Entropic Energy>
22.0288

> <AbsoluteEnergy>
92.8902

> <ConfNumber>
18

> <Ionization pH>
7.34_DP

> <IonizationIndex>
1

> <MOL_NUMBER>
529

> <NumberOfIonizations>
2

> <NumberOfStereoisomers>
1

> <NumberOfTautomers>
1

> <PUBCHEM_ATOM_DEF_STEREO_COUNT>
17

> <PUBCHEM_ATOM_UDEF_STEREO_COUNT>
0

> <PUBCHEM_BONDANNOTATIONS>
29  1  5
44  1  5
51  11  6
52  12  5
54  13  6
14  28  5
15  55  6
16  31  5
17  34  6
18  56  6
25  65  5
27  41  5
47  49  5
45  5  6
46  6  5
50  6  5
48  7  6

> <PUBCHEM_BOND_DEF_STEREO_COUNT>
0

> <PUBCHEM_BOND_UDEF_STEREO_COUNT>
0

> <PUBCHEM_CACTVS_COMPLEXITY>
1510

> <PUBCHEM_CACTVS_HBOND_ACCEPTOR>
13

> <PUBCHEM_CACTVS_HBOND_DONOR>
7

> <PUBCHEM_CACTVS_ROTATABLE_BOND>
6

> <PUBCHEM_CACTVS_SUBSKEYS>
AAADcfB8PAAAAAAAAAAAAAAAAAAAAAAAAAA0aMGCAAAAAADAAAAAGgAACAAADxSwgAMCCAAABgCIAiDSCAIAAAAgAAAACAFAAAgREBYAAQQiQAAFoAAPAAPK7PzPgAAAAAAAAADAAAYAADAAAAAAAAAAAA==

> <PUBCHEM_CACTVS_TAUTO_COUNT>
1

> <PUBCHEM_CACTVS_TPSA>
213

> <PUBCHEM_COMPONENT_COUNT>
1

> <PUBCHEM_COMPOUND_CANONICALIZED>
1

> <PUBCHEM_COMPOUND_CID>
176596

> <PUBCHEM_COORDINATE_TYPE>
1
5
255

> <PUBCHEM_EXACT_MASS>
764.43469209

> <PUBCHEM_HEAVY_ATOM_COUNT>
54

> <PUBCHEM_ISOTOPIC_ATOM_COUNT>
0

> <PUBCHEM_IUPAC_CAS_NAME>
(2S,3S,4S,5R,6R)-6-[[(3S,4aR,6aR,6bS,8aS,12aS,14aR,14bR)-8a-carboxy-4,4,6a,6b,11,11,14b-heptamethyl-1,2,3,4a,5,6,7,8,9,10,12,12a,14,14a-tetradecahydropicen-3-yl]oxy]-3,5-dihydroxy-4-[[(2S,3R,4S,5R)-3,
4,5-trihydroxy-2-oxanyl]oxy]-2-oxanecarboxylic acid

> <PUBCHEM_IUPAC_INCHI>
InChI=1S/C41H64O13/c1-36(2)14-16-41(35(49)50)17-15-39(6)20(21(41)18-36)8-9-24-38(5)12-11-25(37(3,4)23(38)10-13-40(24,39)7)52-34-29(46)30(28(45)31(54-34)32(47)48)53-33-27(44)26(43)22(42)19-51-33/h8,21-
31,33-34,42-46H,9-19H2,1-7H3,(H,47,48)(H,49,50)/t21-,22+,23-,24+,25-,26-,27+,28-,29+,30-,31-,33-,34+,38-,39+,40+,41-/m0/s1

> <PUBCHEM_IUPAC_INCHIKEY>
HWYBGIDROCYPOE-WEAQAMGWSA-N

> <PUBCHEM_IUPAC_NAME>
(2S,3S,4S,5R,6R)-6-[[(3S,4aR,6aR,6bS,8aS,12aS,14aR,14bR)-8a-carboxy-4,4,6a,6b,11,11,14b-heptamethyl-1,2,3,4a,5,6,7,8,9,10,12,12a,14,14a-tetradecahydropicen-3-yl]oxy]-3,5-dihydroxy-4-[(2S,3R,4S,5R)-3,4
,5-trihydroxyoxan-2-yl]oxyoxane-2-carboxylic acid

> <PUBCHEM_IUPAC_NAME_MARKUP>
(2<I>S</I>,3<I>S</I>,4<I>S</I>,5<I>R</I>,6<I>R</I>)-6-[[(3<I>S</I>,4<I>a</I><I>R</I>,6<I>a</I><I>R</I>,6<I>b</I><I>S</I>,8<I>a</I><I>S</I>,12<I>a</I><I>S</I>,14<I>a</I><I>R</I>,14<I>b</I><I>R</I>)-8<I
>a</I>-carboxy-4,4,6<I>a</I>,6<I>b</I>,11,11,14<I>b</I>-heptamethyl-1,2,3,4<I>a</I>,5,6,7,8,9,10,12,12<I>a</I>,14,14<I>a</I>-tetradecahydropicen-3-yl]oxy]-3,5-dihydroxy-4-[(2<I>S</I>,3<I>R</I>,4<I>S</
I>,5<I>R</I>)-3,4,5-trihydroxyoxan-2-yl]oxyoxane-2-carboxylic acid

> <PUBCHEM_IUPAC_OPENEYE_NAME>
(2S,3S,4S,5R,6R)-6-[[(3S,4aR,6aR,6bS,8aS,12aS,14aR,14bR)-8a-carboxy-4,4,6a,6b,11,11,14b-heptamethyl-1,2,3,4a,5,6,7,8,9,10,12,12a,14,14a-tetradecahydropicen-3-yl]oxy]-3,5-dihydroxy-4-[(2S,3R,4S,5R)-3,4
,5-trihydroxytetrahydropyran-2-yl]oxy-tetrahydropyran-2-carboxylic acid

> <PUBCHEM_IUPAC_SYSTEMATIC_NAME>
(2S,3S,4S,5R,6R)-6-[[(3S,4aR,6aR,6bS,8aS,12aS,14aR,14bR)-8a-carboxy-4,4,6a,6b,11,11,14b-heptamethyl-1,2,3,4a,5,6,7,8,9,10,12,12a,14,14a-tetradecahydropicen-3-yl]oxy]-3,5-bis(oxidanyl)-4-[(2S,3R,4S,5R)
-3,4,5-tris(oxidanyl)oxan-2-yl]oxy-oxane-2-carboxylic acid

> <PUBCHEM_IUPAC_TRADITIONAL_NAME>
(2S,3S,4S,5R,6R)-6-[[(3S,4aR,6aR,6bS,8aS,12aS,14aR,14bR)-8a-carboxy-4,4,6a,6b,11,11,14b-heptamethyl-1,2,3,4a,5,6,7,8,9,10,12,12a,14,14a-tetradecahydropicen-3-yl]oxy]-3,5-dihydroxy-4-[(2S,3R,4S,5R)-3,4
,5-trihydroxytetrahydropyran-2-yl]oxy-tetrahydropyran-2-carboxylic acid

> <PUBCHEM_MOLECULAR_FORMULA>
C41H64O13

> <PUBCHEM_MOLECULAR_WEIGHT>
764.9

> <PUBCHEM_MONOISOTOPIC_WEIGHT>
764.43469209

> <PUBCHEM_OPENEYE_CAN_SMILES>
CC1(CCC2(CCC3(C(=CCC4C3(CCC5C4(CCC(C5(C)C)OC6C(C(C(C(O6)C(=O)O)O)OC7C(C(C(CO7)O)O)O)O)C)C)C2C1)C)C(=O)O)C

> <PUBCHEM_OPENEYE_ISO_SMILES>
C[C@]12CC[C@@H](C([C@@H]1CC[C@@]3([C@@H]2CC=C4[C@]3(CC[C@@]5([C@H]4CC(CC5)(C)C)C(=O)O)C)C)(C)C)O[C@H]6[C@@H]([C@H]([C@@H]([C@H](O6)C(=O)O)O)O[C@H]7[C@@H]([C@H]([C@@H](CO7)O)O)O)O

> <PUBCHEM_TOTAL_CHARGE>
0

> <PUBCHEM_XLOGP3_AA>
4.6

> <RelativeEnergy>
7.4436

> <StereoisomerIndex>
1

> <TautomerIndex>
1

> <POSE_NUMBER>
2

> <LibDockScore>
108.7808

> <HotSpots>
11.21,-4.73,-14.26,P,22,8
9.01,2.67,-14.05,A,21,53
9.21,3.67,-12.86,A,26,54

> <-In-Situ Starting Energy>
-23149.46

> <-In-Situ Final Energy>
-83.4538673

> <In-Situ Gradient>
0.0009771120093

$$$$
2180
  SciTegic09142310043D

 59 61  0  0  0  0            999 V2000
   12.8435    0.2423  -11.9822 O   0  0  0  1  0  0
   15.7863   -0.0376   -8.5630 O   0  0  0  1  0  0
   14.8951   -0.2419  -10.6055 O   0  0  0  1  0  0
   14.3514   -2.2369  -14.3097 O   0  0  0  1  0  0
   11.8796    2.2487  -12.2672 O   0  0  0  1  0  0
   15.0431    0.1924  -15.0460 O   0  0  0  1  0  0
   15.0358    2.3718  -10.3895 O   0  0  0  1  0  0
   14.2561    2.0792  -13.7150 O   0  0  0  1  0  0
   17.8748    3.3637   -9.4940 O   0  0  0  1  0  0
   18.7686    0.8393   -9.0732 O   0  0  0  1  0  0
   15.3769   -0.5482   -5.9320 O   0  0  0  1  0  0
   11.7950    5.5769  -11.6627 N   0  0  0  1  0  0
   13.6138   -0.8659  -12.4077 C   0  0  1  1  0  0
   13.4414   -1.2244  -13.8915 C   0  0  1  1  0  0
   13.6621   -0.0102  -14.7942 C   0  0  1  1  0  0
   16.2505    1.6670  -10.2055 C   0  0  1  1  0  0
   13.1595    1.2991  -14.1545 C   0  0  1  1  0  0
   16.9748    2.3647   -9.0412 C   0  0  1  1  0  0
   16.0483    0.1700   -9.9270 C   0  0  1  1  0  0
   17.7762    1.3645   -8.2061 C   0  0  1  1  0  0
   16.8582    0.2341   -7.6847 C   0  0  1  1  0  0
   12.2163    1.0485  -12.9496 C   0  0  1  1  0  0
   15.0294   -0.5267  -11.9771 C   0  0  0  1  0  0
   16.1537    0.5554   -6.3611 C   0  0  0  1  0  0
   11.3370    3.3538  -12.9740 C   0  0  1  1  0  0
    9.8802    3.1168  -13.3261 C   0  0  0  1  0  0
   11.6050    4.5731  -12.2125 C   0  0  0  1  0  0
    9.5700    2.1446  -14.2606 C   0  0  0  1  0  0
    8.8236    3.8721  -12.8201 C   0  0  0  1  0  0
    8.2867    1.9459  -14.7201 C   0  0  0  1  0  0
    7.5138    3.6062  -13.2153 C   0  0  0  1  0  0
    7.2437    2.6058  -14.1210 C   0  0  0  1  0  0
   14.0796   -2.6449  -15.1332 H   0  0
   15.4510   -0.6713  -15.1123 H   0  0
   14.4010    1.8065  -10.8304 H   0  0
   14.9768    1.9121  -14.3261 H   0  0
   17.4336    3.8973  -10.1569 H   0  0
   19.2535    1.5769   -9.4452 H   0  0
   14.8854   -0.9053   -6.6773 H   0  0
   13.2875   -1.7259  -11.8253 H   0  0
   12.4064   -1.5706  -14.0034 H   0  0
   13.1590   -0.1674  -15.7523 H   0  0
   16.8344    1.7437  -11.1273 H   0  0
   12.6402    1.8697  -14.9232 H   0  0
   16.2346    2.8199   -8.3773 H   0  0
   16.9115   -0.4262  -10.2288 H   0  0
   18.2621    1.8475   -7.3501 H   0  0
   17.4509   -0.6702   -7.5678 H   0  0
   11.3221    0.5072  -13.2442 H   0  0
   15.7171   -1.3432  -12.1336 H   0  0
   15.4377    0.3252  -12.5109 H   0  0
   16.8576    0.7996   -5.5699 H   0  0
   15.5052    1.4290   -6.4697 H   0  0
   11.8799    3.5071  -13.9037 H   0  0
   10.3406    1.5256  -14.6655 H   0  0
    9.0066    4.6798  -12.1290 H   0  0
    8.0863    1.2417  -15.5136 H   0  0
    6.6802    4.1996  -12.8837 H   0  0
    6.2369    2.3685  -14.4225 H   0  0
  1 13  1  0
  1 22  1  0
  2 19  1  0
  2 21  1  0
  3 19  1  0
  3 23  1  0
  4 14  1  0
  5 22  1  0
  5 25  1  0
  6 15  1  0
  7 16  1  0
  8 17  1  0
  9 18  1  0
 10 20  1  0
 11 24  1  0
 12 27  3  0
 13 14  1  0
 13 23  1  0
 14 15  1  0
 15 17  1  0
 16 18  1  0
 16 19  1  0
 17 22  1  0
 18 20  1  0
 20 21  1  0
 21 24  1  0
 25 26  1  0
 25 27  1  0
 26 28  2  0
 26 29  1  0
 28 30  1  0
 29 31  2  0
 30 32  2  0
 31 32  1  0
  4 33  1  0
  6 34  1  0
  7 35  1  0
  8 36  1  0
  9 37  1  0
 10 38  1  0
 11 39  1  0
 13 40  1  0
 14 41  1  0
 15 42  1  0
 16 43  1  0
 17 44  1  0
 18 45  1  0
 19 46  1  0
 20 47  1  0
 21 48  1  0
 22 49  1  0
 23 50  1  0
 23 51  1  0
 24 52  1  0
 24 53  1  0
 25 54  1  0
 28 55  1  0
 29 56  1  0
 30 57  1  0
 31 58  1  0
 32 59  1  0
M  END
> <Name>
2180

> <Binding Energy>
-13.5646

> <Ligand Energy>
77.4767

> <Protein Energy>
-7801.1566

> <Complex Energy>
-7737.2446

> <Complex Entropy>
-31.4885

> <Protein Entropy>
-31.4717

> <Ligand Entropy>
-20.5061

> <Entropic Energy>
20.4892

> <AbsoluteEnergy>
66.8316

> <ConfNumber>
70

> <IonizationIndex>
1

> <MOL_NUMBER>
532

> <NumberOfIonizations>
1

> <NumberOfStereoisomers>
1

> <NumberOfTautomers>
1

> <PUBCHEM_ATOM_DEF_STEREO_COUNT>
0

> <PUBCHEM_ATOM_UDEF_STEREO_COUNT>
11

> <PUBCHEM_BONDANNOTATIONS>
13  33  3
14  34  3
15  35  3
16  36  3
17  37  3
18  38  3
19  39  3
20  40  3
21  41  3
22  42  3
25  53  3
26  28  8
26  29  8
28  30  8
29  31  8
30  32  8
31  32  8

> <PUBCHEM_BOND_DEF_STEREO_COUNT>
0

> <PUBCHEM_BOND_UDEF_STEREO_COUNT>
0

> <PUBCHEM_CACTVS_COMPLEXITY>
638

> <PUBCHEM_CACTVS_HBOND_ACCEPTOR>
12

> <PUBCHEM_CACTVS_HBOND_DONOR>
7

> <PUBCHEM_CACTVS_ROTATABLE_BOND>
7

> <PUBCHEM_CACTVS_SUBSKEYS>
AAADceB6PAAAAAAAAAAAAAAAAAAAAAAAAAA0SIAAAAAAAAABAAAAHgAACAAADBSxmAMwCIAABgCQBiBCAAACAAAgAAAIiAAACIgZtiKAMRiicAAlwAEPqA/A4KwOAAAAAAAAAAAAAAAAAAAAAAAAAAAAAA==

> <PUBCHEM_CACTVS_TAUTO_COUNT>
1

> <PUBCHEM_CACTVS_TPSA>
202

> <PUBCHEM_COMPONENT_COUNT>
1

> <PUBCHEM_COMPOUND_CANONICALIZED>
1

> <PUBCHEM_COMPOUND_CID>
2180

> <PUBCHEM_COORDINATE_TYPE>
1
5
255

> <PUBCHEM_EXACT_MASS>
457.15841068

> <PUBCHEM_HEAVY_ATOM_COUNT>
32

> <PUBCHEM_ISOTOPIC_ATOM_COUNT>
0

> <PUBCHEM_IUPAC_CAS_NAME>
2-phenyl-2-[[3,4,5-trihydroxy-6-[[3,4,5-trihydroxy-6-(hydroxymethyl)-2-oxanyl]oxymethyl]-2-oxanyl]oxy]acetonitrile

> <PUBCHEM_IUPAC_INCHI>
InChI=1S/C20H27NO11/c21-6-10(9-4-2-1-3-5-9)30-20-18(28)16(26)14(24)12(32-20)8-29-19-17(27)15(25)13(23)11(7-22)31-19/h1-5,10-20,22-28H,7-8H2

> <PUBCHEM_IUPAC_INCHIKEY>
XUCIJNAGGSZNQT-UHFFFAOYSA-N

> <PUBCHEM_IUPAC_NAME>
2-phenyl-2-[3,4,5-trihydroxy-6-[[3,4,5-trihydroxy-6-(hydroxymethyl)oxan-2-yl]oxymethyl]oxan-2-yl]oxyacetonitrile

> <PUBCHEM_IUPAC_NAME_MARKUP>
2-phenyl-2-[3,4,5-trihydroxy-6-[[3,4,5-trihydroxy-6-(hydroxymethyl)oxan-2-yl]oxymethyl]oxan-2-yl]oxyacetonitrile

> <PUBCHEM_IUPAC_OPENEYE_NAME>
2-phenyl-2-[3,4,5-trihydroxy-6-[[3,4,5-trihydroxy-6-(hydroxymethyl)tetrahydropyran-2-yl]oxymethyl]tetrahydropyran-2-yl]oxy-acetonitrile

> <PUBCHEM_IUPAC_SYSTEMATIC_NAME>
2-[6-[[6-(hydroxymethyl)-3,4,5-tris(oxidanyl)oxan-2-yl]oxymethyl]-3,4,5-tris(oxidanyl)oxan-2-yl]oxy-2-phenyl-ethanenitrile

> <PUBCHEM_IUPAC_TRADITIONAL_NAME>
2-phenyl-2-[3,4,5-trihydroxy-6-[(3,4,5-trihydroxy-6-methylol-tetrahydropyran-2-yl)oxymethyl]tetrahydropyran-2-yl]oxy-acetonitrile

> <PUBCHEM_MOLECULAR_FORMULA>
C20H27NO11

> <PUBCHEM_MOLECULAR_WEIGHT>
457.4

> <PUBCHEM_MONOISOTOPIC_WEIGHT>
457.15841068

> <PUBCHEM_OPENEYE_CAN_SMILES>
C1=CC=C(C=C1)C(C#N)OC2C(C(C(C(O2)COC3C(C(C(C(O3)CO)O)O)O)O)O)O

> <PUBCHEM_OPENEYE_ISO_SMILES>
C1=CC=C(C=C1)C(C#N)OC2C(C(C(C(O2)COC3C(C(C(C(O3)CO)O)O)O)O)O)O

> <PUBCHEM_TOTAL_CHARGE>
0

> <PUBCHEM_XLOGP3_AA>
-2.7

> <RelativeEnergy>
11.3191

> <StereoisomerIndex>
1

> <TautomerIndex>
1

> <POSE_NUMBER>
6

> <LibDockScore>
113.4996

> <HotSpots>
11.21,4.87,-14.65,A,18,27
9.21,3.67,-12.86,A,26,29
7.21,2.27,-14.26,A,20,30

> <-In-Situ Starting Energy>
-5448.49265

> <-In-Situ Final Energy>
-32.1612714

> <In-Situ Gradient>
0.0009252024172

$$$$
222156
  SciTegic09142310043D

101107  0  0  0  0            999 V2000
   19.9547    1.2064  -16.7404 O   0  0  0  1  0  0
   12.6489    0.4398  -13.0468 O   0  0  0  1  0  0
   23.2793   -2.8112  -12.7315 O   0  0  0  1  0  0
   10.5428    1.1132  -12.7308 O   0  0  0  1  0  0
   23.8782   -4.9673  -12.4699 O   0  0  0  1  0  0
   12.4318    1.8772  -10.6814 O   0  0  0  1  0  0
   11.4668    4.3702  -10.4548 O   0  0  0  1  0  0
    9.9705    2.3654  -10.2680 O   0  0  0  1  0  0
   12.3314    6.4349   -9.9503 O   0  0  0  1  0  0
   12.5604    3.4256   -8.4562 O   0  0  0  1  0  0
   13.8227    4.6683   -6.6577 O   0  0  0  1  0  0
   11.8427    6.1380   -6.4272 O   0  0  0  1  0  0
   10.2255    8.3012   -7.5021 O   0  0  0  1  0  0
   19.2324    0.3378  -15.8918 C   0  0  2  1  0  0
   19.9049   -1.0788  -15.7882 C   0  0  1  1  0  0
   17.7431    0.2878  -16.3381 C   0  0  1  1  0  0
   16.9771   -0.7588  -15.4779 C   0  0  1  1  0  0
   15.4304   -0.6325  -15.5502 C   0  0  2  1  0  0
   20.1928   -1.2462  -14.2718 C   0  0  2  1  0  0
   18.9591   -2.1617  -16.3625 C   0  0  0  1  0  0
   17.5371   -2.1735  -15.7632 C   0  0  0  1  0  0
   19.3647    0.9670  -14.4825 C   0  0  0  1  0  0
   20.4509    0.1785  -13.7906 C   0  0  0  1  0  0
   17.1457    1.7125  -16.3534 C   0  0  0  1  0  0
   15.1223    0.8423  -15.3677 C   0  0  0  1  0  0
   21.2428   -1.1577  -16.5618 C   0  0  0  1  0  0
   15.6293    1.7168  -16.4747 C   0  0  0  1  0  0
   14.7227   -1.4502  -14.4407 C   0  0  0  1  0  0
   14.8887   -1.1456  -16.8975 C   0  0  0  1  0  0
   21.2568   -2.2265  -13.8170 C   0  0  0  1  0  0
   14.7205   -0.7664  -13.0691 C   0  0  0  1  0  0
   14.4203    1.3669  -14.3503 C   0  0  0  1  0  0
   14.0493    0.6088  -13.1086 C   0  0  1  1  0  0
   20.9829   -3.6588  -14.0160 C   0  0  0  1  0  0
   22.3950   -1.8982  -13.1667 C   0  0  0  1  0  0
   21.8753   -4.5743  -13.5991 C   0  0  0  1  0  0
   11.8371    1.5995  -13.0157 C   0  0  1  1  0  0
   23.0968   -4.1211  -12.8899 C   0  0  0  1  0  0
   12.2718    2.5801  -11.8979 C   0  0  1  1  0  0
   11.2445    3.7069  -11.6864 C   0  0  1  1  0  0
    9.5060    2.0603  -12.5867 C   0  0  1  1  0  0
    9.8697    3.0715  -11.4946 C   0  0  1  1  0  0
    9.1500    2.7085  -13.9262 C   0  0  0  1  0  0
   12.6662    5.0894  -10.2365 C   0  0  1  1  0  0
   13.3821    4.4257   -9.0383 C   0  0  1  1  0  0
   13.6575    5.3852   -7.8699 C   0  0  1  1  0  0
   11.6205    6.6296   -8.7443 C   0  0  1  1  0  0
   12.6003    6.4568   -7.5867 C   0  0  1  1  0  0
   10.9376    8.0177   -8.7019 C   0  0  0  1  0  0
   19.8636    0.9255  -17.6411 H   0  0
   11.5903    1.4317  -10.5317 H   0  0
   10.1092    2.9934   -9.5557 H   0  0
   12.3352    2.8075   -9.1569 H   0  0
   13.2596    3.8947   -6.7423 H   0  0
   12.4471    5.6920   -5.8317 H   0  0
   10.6688    7.8312   -6.7936 H   0  0
   17.6683   -0.0694  -17.3658 H   0  0
   17.2068   -0.5691  -14.4351 H   0  0
   19.2520   -1.5417  -13.8207 H   0  0
   19.4012   -3.1534  -16.2996 H   0  0
   18.8633   -1.9836  -17.4343 H   0  0
   16.9002   -2.7211  -16.4544 H   0  0
   17.5284   -2.7619  -14.8480 H   0  0
   19.5543    2.0337  -14.4806 H   0  0
   18.4590    0.8712  -13.8907 H   0  0
   20.4048    0.2750  -12.7053 H   0  0
   21.4228    0.5392  -14.1290 H   0  0
   17.5832    2.2954  -17.1640 H   0  0
   17.4026    2.2432  -15.4377 H   0  0
   21.9176   -0.3489  -16.2801 H   0  0
   21.1048   -1.1257  -17.6418 H   0  0
   21.7619   -2.0956  -16.3668 H   0  0
   15.2421    2.7322  -16.3854 H   0  0
   15.3119    1.3397  -17.4406 H   0  0
   15.1597   -2.4459  -14.3687 H   0  0
   13.6795   -1.6088  -14.7198 H   0  0
   14.8905   -2.2341  -16.9532 H   0  0
   15.4502   -0.7748  -17.7537 H   0  0
   13.8527   -0.8395  -17.0086 H   0  0
   15.7453   -0.6651  -12.7122 H   0  0
   14.1977   -1.3828  -12.3403 H   0  0
   14.1715    2.4110  -14.3493 H   0  0
   14.3855    1.1584  -12.2295 H   0  0
   20.0670   -3.9594  -14.4848 H   0  0
   22.6588   -0.8798  -12.9560 H   0  0
   21.7146   -5.6205  -13.7638 H   0  0
   11.8417    2.0834  -13.9927 H   0  0
   13.2356    3.0242  -12.1444 H   0  0
   11.2416    4.4143  -12.5157 H   0  0
    8.6219    1.5172  -12.2502 H   0  0
    9.0906    3.8385  -11.4425 H   0  0
    8.9381    1.9518  -14.6812 H   0  0
    9.9522    3.3438  -14.2993 H   0  0
    8.2580    3.3250  -13.8150 H   0  0
   13.3005    5.0714  -11.1234 H   0  0
   14.3317    3.9783   -9.3556 H   0  0
   14.5903    5.9071   -8.0876 H   0  0
   10.8622    5.8571   -8.6684 H   0  0
   13.1324    7.3967   -7.4180 H   0  0
   11.6751    8.8090   -8.8575 H   0  0
   10.2205    8.0871   -9.5212 H   0  0
  1 14  1  0
  2 33  1  0
  2 37  1  0
  3 35  1  0
  3 38  1  0
  4 37  1  0
  4 41  1  0
  5 38  2  0
  6 39  1  0
  7 40  1  0
  7 44  1  0
  8 42  1  0
  9 44  1  0
  9 47  1  0
 10 45  1  0
 11 46  1  0
 12 48  1  0
 13 49  1  0
 14 15  1  0
 14 16  1  0
 14 22  1  0
 15 19  1  0
 15 20  1  0
 15 26  1  0
 16 17  1  0
 16 24  1  0
 17 18  1  0
 17 21  1  0
 18 25  1  0
 18 28  1  0
 18 29  1  0
 19 23  1  0
 19 30  1  0
 20 21  1  0
 22 23  1  0
 24 27  1  0
 25 27  1  0
 25 32  2  0
 28 31  1  0
 30 34  1  0
 30 35  2  0
 31 33  1  0
 32 33  1  0
 34 36  2  0
 36 38  1  0
 37 39  1  0
 39 40  1  0
 40 42  1  0
 41 42  1  0
 41 43  1  0
 44 45  1  0
 45 46  1  0
 46 48  1  0
 47 48  1  0
 47 49  1  0
  1 50  1  0
  6 51  1  0
  8 52  1  0
 10 53  1  0
 11 54  1  0
 12 55  1  0
 13 56  1  0
 16 57  1  0
 17 58  1  0
 19 59  1  0
 20 60  1  0
 20 61  1  0
 21 62  1  0
 21 63  1  0
 22 64  1  0
 22 65  1  0
 23 66  1  0
 23 67  1  0
 24 68  1  0
 24 69  1  0
 26 70  1  0
 26 71  1  0
 26 72  1  0
 27 73  1  0
 27 74  1  0
 28 75  1  0
 28 76  1  0
 29 77  1  0
 29 78  1  0
 29 79  1  0
 31 80  1  0
 31 81  1  0
 32 82  1  0
 33 83  1  0
 34 84  1  0
 35 85  1  0
 36 86  1  0
 37 87  1  0
 39 88  1  0
 40 89  1  0
 41 90  1  0
 42 91  1  0
 43 92  1  0
 43 93  1  0
 43 94  1  0
 44 95  1  0
 45 96  1  0
 46 97  1  0
 47 98  1  0
 48 99  1  0
 49100  1  0
 49101  1  0
M  END
> <Name>
222156

> <Binding Energy>
-96.0226

> <Ligand Energy>
106.2395

> <Protein Energy>
-7801.1566

> <Complex Energy>
-7790.9397

> <Complex Entropy>
-31.4994

> <Protein Entropy>
-31.4717

> <Ligand Entropy>
-21.7948

> <Entropic Energy>
21.767

> <AbsoluteEnergy>
82.4242

> <ConfNumber>
27

> <IonizationIndex>
1

> <MOL_NUMBER>
533

> <NumberOfIonizations>
1

> <NumberOfStereoisomers>
1

> <NumberOfTautomers>
1

> <PUBCHEM_ATOM_DEF_STEREO_COUNT>
7

> <PUBCHEM_ATOM_UDEF_STEREO_COUNT>
10

> <PUBCHEM_BONDANNOTATIONS>
14  1  5
45  10  3
46  11  3
48  12  3
15  26  5
16  50  5
17  51  6
18  29  5
19  30  5
33  2  5
37  2  3
3  35  8
3  38  8
30  34  8
30  35  8
34  36  8
36  38  8
41  43  3
47  49  3
39  6  3
40  7  3
44  7  3
42  8  3

> <PUBCHEM_BOND_DEF_STEREO_COUNT>
0

> <PUBCHEM_BOND_UDEF_STEREO_COUNT>
0

> <PUBCHEM_CACTVS_COMPLEXITY>
1370

> <PUBCHEM_CACTVS_HBOND_ACCEPTOR>
13

> <PUBCHEM_CACTVS_HBOND_DONOR>
7

> <PUBCHEM_CACTVS_ROTATABLE_BOND>
6

> <PUBCHEM_CACTVS_SUBSKEYS>
AAADcfB8PAAAAAAAAAAAAAAAAAAAAYAAAAA0aIECAAAAAGDAAAAAGgAACAAAD1SwgAMCCAAABgCIAiDSCAAACAAgIAAICAAAAEgZFAIAIQAiUAAFgAAPoYPA4PwPgAAAAAAAAACAAAYAADAAAYAADAAAAA==

> <PUBCHEM_CACTVS_TAUTO_COUNT>
-1

> <PUBCHEM_CACTVS_TPSA>
205

> <PUBCHEM_COMPONENT_COUNT>
1

> <PUBCHEM_COMPOUND_CANONICALIZED>
1

> <PUBCHEM_COMPOUND_CID>
222156

> <PUBCHEM_COORDINATE_TYPE>
1
5
255

> <PUBCHEM_EXACT_MASS>
692.34079171

> <PUBCHEM_HEAVY_ATOM_COUNT>
49

> <PUBCHEM_ISOTOPIC_ATOM_COUNT>
0

> <PUBCHEM_IUPAC_CAS_NAME>
5-[(3S,8R,9S,10R,13R,14S,17R)-3-[[3,5-dihydroxy-6-methyl-4-[[3,4,5-trihydroxy-6-(hydroxymethyl)-2-oxanyl]oxy]-2-oxanyl]oxy]-14-hydroxy-10,13-dimethyl-1,2,3,6,7,8,9,11,12,15,16,17-dodecahydrocyclopenta
[a]phenanthren-17-yl]-2-pyranone

> <PUBCHEM_IUPAC_INCHI>
InChI=1S/C36H52O13/c1-17-26(39)31(49-32-29(42)28(41)27(40)24(15-37)48-32)30(43)33(46-17)47-20-8-11-34(2)19(14-20)5-6-23-22(34)9-12-35(3)21(10-13-36(23,35)44)18-4-7-25(38)45-16-18/h4,7,14,16-17,20-24,2
6-33,37,39-44H,5-6,8-13,15H2,1-3H3/t17?,20-,21+,22-,23+,24?,26?,27?,28?,29?,30?,31?,32?,33?,34-,35+,36-/m0/s1

> <PUBCHEM_IUPAC_INCHIKEY>
SANIPSLLLIEJOB-NCQVURFFSA-N

> <PUBCHEM_IUPAC_NAME>
5-[(3S,8R,9S,10R,13R,14S,17R)-3-[3,5-dihydroxy-6-methyl-4-[3,4,5-trihydroxy-6-(hydroxymethyl)oxan-2-yl]oxyoxan-2-yl]oxy-14-hydroxy-10,13-dimethyl-1,2,3,6,7,8,9,11,12,15,16,17-dodecahydrocyclopenta[a]p
henanthren-17-yl]pyran-2-one

> <PUBCHEM_IUPAC_NAME_MARKUP>
5-[(3<I>S</I>,8<I>R</I>,9<I>S</I>,10<I>R</I>,13<I>R</I>,14<I>S</I>,17<I>R</I>)-3-[3,5-dihydroxy-6-methyl-4-[3,4,5-trihydroxy-6-(hydroxymethyl)oxan-2-yl]oxyoxan-2-yl]oxy-14-hydroxy-10,13-dimethyl-1,2,3
,6,7,8,9,11,12,15,16,17-dodecahydrocyclopenta[a]phenanthren-17-yl]pyran-2-one

> <PUBCHEM_IUPAC_OPENEYE_NAME>
5-[(3S,8R,9S,10R,13R,14S,17R)-3-[3,5-dihydroxy-6-methyl-4-[3,4,5-trihydroxy-6-(hydroxymethyl)tetrahydropyran-2-yl]oxy-tetrahydropyran-2-yl]oxy-14-hydroxy-10,13-dimethyl-1,2,3,6,7,8,9,11,12,15,16,17-do
decahydrocyclopenta[a]phenanthren-17-yl]pyran-2-one

> <PUBCHEM_IUPAC_SYSTEMATIC_NAME>
5-[(3S,8R,9S,10R,13R,14S,17R)-3-[4-[6-(hydroxymethyl)-3,4,5-tris(oxidanyl)oxan-2-yl]oxy-6-methyl-3,5-bis(oxidanyl)oxan-2-yl]oxy-10,13-dimethyl-14-oxidanyl-1,2,3,6,7,8,9,11,12,15,16,17-dodecahydrocyclo
penta[a]phenanthren-17-yl]pyran-2-one

> <PUBCHEM_IUPAC_TRADITIONAL_NAME>
5-[(3S,8R,9S,10R,13R,14S,17R)-3-[3,5-dihydroxy-6-methyl-4-(3,4,5-trihydroxy-6-methylol-tetrahydropyran-2-yl)oxy-tetrahydropyran-2-yl]oxy-14-hydroxy-10,13-dimethyl-1,2,3,6,7,8,9,11,12,15,16,17-dodecahy
drocyclopenta[a]phenanthren-17-yl]pyran-2-one

> <PUBCHEM_MOLECULAR_FORMULA>
C36H52O13

> <PUBCHEM_MOLECULAR_WEIGHT>
692.8

> <PUBCHEM_MONOISOTOPIC_WEIGHT>
692.34079171

> <PUBCHEM_OPENEYE_CAN_SMILES>
CC1C(C(C(C(O1)OC2CCC3(C4CCC5(C(CCC5(C4CCC3=C2)O)C6=COC(=O)C=C6)C)C)O)OC7C(C(C(C(O7)CO)O)O)O)O

> <PUBCHEM_OPENEYE_ISO_SMILES>
CC1C(C(C(C(O1)O[C@H]2CC[C@@]3([C@H]4CC[C@@]5([C@H](CC[C@@]5([C@@H]4CCC3=C2)O)C6=COC(=O)C=C6)C)C)O)OC7C(C(C(C(O7)CO)O)O)O)O

> <PUBCHEM_TOTAL_CHARGE>
0

> <PUBCHEM_XLOGP3_AA>
0.3

> <RelativeEnergy>
7.2652

> <StereoisomerIndex>
1

> <TautomerIndex>
1

> <POSE_NUMBER>
1

> <LibDockScore>
110.2659

> <HotSpots>
9.01,2.67,-14.05,A,21,41
9.21,3.67,-12.86,A,26,42
10.81,8.27,-8.46,A,35,49

> <-In-Situ Starting Energy>
-3289837.04

> <-In-Situ Final Energy>
-54.2850572

> <In-Situ Gradient>
0.0009425509457

$$$$
25210
  SciTegic09142310043D

 22 21  0  0  0  0            999 V2000
    8.0303    8.5632   -4.1084 Hg  0  0  0  1  0  0
    9.3995    8.3810   -5.8537 Cl  0  0  0  1  0  0
    5.6486    9.6194   -0.7066 O   0  0  0  1  0  0
    6.5392   13.8402   -1.5614 O   0  0  0  1  0  0
    6.7175   11.8157   -0.6261 N   0  0  0  1  0  0
    6.5627   13.6366    0.6784 N   0  0  0  1  0  0
    6.8128    9.6376   -1.4844 C   0  0  2  1  0  0
    6.9054   11.0850   -1.8796 C   0  0  0  1  0  0
    6.5942    8.6444   -2.6155 C   0  0  0  1  0  0
    5.7405    8.9122    0.4853 C   0  0  0  1  0  0
    6.6094   13.1451   -0.5617 C   0  0  0  1  0  0
    6.7732   11.2683    0.2105 H   0  0
    6.4195   14.6170    0.8063 H   0  0
    6.6959   13.0573    1.4821 H   0  0
    7.6813    9.3986   -0.8796 H   0  0
    7.8899   11.2904   -2.2763 H   0  0
    6.1469   11.3682   -2.6045 H   0  0
    5.6982    8.9389   -3.1323 H   0  0
    6.4347    7.6460   -2.2102 H   0  0
    6.5322    9.3542    1.0788 H   0  0
    5.9573    7.8610    0.2999 H   0  0
    4.7958    9.0195    1.0124 H   0  0
  1  2  1  0
  1  9  1  0
  3  7  1  0
  3 10  1  0
  4 11  2  0
  5  8  1  0
  5 11  1  0
  6 11  1  0
  7  8  1  0
  7  9  1  0
  5 12  1  0
  6 13  1  0
  6 14  1  0
  7 15  1  0
  8 16  1  0
  8 17  1  0
  9 18  1  0
  9 19  1  0
 10 20  1  0
 10 21  1  0
 10 22  1  0
M  END
> <Name>
25210

> <Binding Energy>
-12.3857

> <Ligand Energy>
-31.6826

> <Protein Energy>
-7801.1566

> <Complex Energy>
-7845.225

> <Complex Entropy>
-31.4828

> <Protein Entropy>
-31.4717

> <Ligand Entropy>
-19.1516

> <Entropic Energy>
19.1405

> <AbsoluteEnergy>
3660.21

> <ConfNumber>
6

> <IonizationIndex>
1

> <MOL_NUMBER>
551

> <NumberOfIonizations>
1

> <NumberOfStereoisomers>
2

> <NumberOfTautomers>
1

> <PUBCHEM_ATOM_DEF_STEREO_COUNT>
0

> <PUBCHEM_ATOM_UDEF_STEREO_COUNT>
1

> <PUBCHEM_BONDANNOTATIONS>
7  8  3

> <PUBCHEM_BOND_DEF_STEREO_COUNT>
0

> <PUBCHEM_BOND_UDEF_STEREO_COUNT>
0

> <PUBCHEM_CACTVS_COMPLEXITY>
125

> <PUBCHEM_CACTVS_HBOND_ACCEPTOR>
2

> <PUBCHEM_CACTVS_HBOND_DONOR>
2

> <PUBCHEM_CACTVS_ROTATABLE_BOND>
4

> <PUBCHEM_CACTVS_SUBSKEYS>
AAADccBjMAAEAAAAAAAAAQAAAAAAAAAAAAAAAAAAAAAAAAAAAAAAHgAQAAAACBThgAYDAALABAAIAAAAEAAAAAAAAAAAAIAIAACCAAAAAAAFAAAAFgIQAAAAAAAAAAAAAAAAAAAAAAAAAAAAAAAAAAAAAA==

> <PUBCHEM_CACTVS_TAUTO_COUNT>
3

> <PUBCHEM_CACTVS_TPSA>
64.4

> <PUBCHEM_COMPONENT_COUNT>
1

> <PUBCHEM_COMPOUND_CANONICALIZED>
1

> <PUBCHEM_COMPOUND_CID>
25210

> <PUBCHEM_COORDINATE_TYPE>
1
5
255

> <PUBCHEM_EXACT_MASS>
368.021549

> <PUBCHEM_HEAVY_ATOM_COUNT>
11

> <PUBCHEM_ISOTOPIC_ATOM_COUNT>
0

> <PUBCHEM_IUPAC_CAS_NAME>
[3-(carbamoylamino)-2-methoxypropyl]-chloromercury

> <PUBCHEM_IUPAC_INCHI>
InChI=1S/C5H11N2O2.ClH.Hg/c1-4(9-2)3-7-5(6)8;;/h4H,1,3H2,2H3,(H3,6,7,8);1H;/q;;+1/p-1

> <PUBCHEM_IUPAC_INCHIKEY>
BJFGVYCULWBXKF-UHFFFAOYSA-M

> <PUBCHEM_IUPAC_NAME>
[3-(carbamoylamino)-2-methoxypropyl]-chloromercury

> <PUBCHEM_IUPAC_NAME_MARKUP>
[3-(carbamoylamino)-2-methoxypropyl]-chloromercury

> <PUBCHEM_IUPAC_OPENEYE_NAME>
chloro-(2-methoxy-3-ureido-propyl)mercury

> <PUBCHEM_IUPAC_SYSTEMATIC_NAME>
[3-(aminocarbonylamino)-2-methoxy-propyl]-chloranyl-mercury

> <PUBCHEM_IUPAC_TRADITIONAL_NAME>
chloro-(2-methoxy-3-ureido-propyl)mercury

> <PUBCHEM_MOLECULAR_FORMULA>
C5H11ClHgN2O2

> <PUBCHEM_MOLECULAR_WEIGHT>
367.2

> <PUBCHEM_MONOISOTOPIC_WEIGHT>
368.021549

> <PUBCHEM_OPENEYE_CAN_SMILES>
COC(CNC(=O)N)C[Hg]Cl

> <PUBCHEM_OPENEYE_ISO_SMILES>
COC(CNC(=O)N)C[Hg]Cl

> <PUBCHEM_TOTAL_CHARGE>
0

> <RelativeEnergy>
0.959008

> <StereoisomerIndex>
2

> <TautomerIndex>
1

> <POSE_NUMBER>
1

> <LibDockScore>
91.0126

> <HotSpots>
6.21,14.47,-1.25,P,80,4
6.61,11.87,-1.46,A,53,8
5.81,9.67,0.14,A,68,10

> <-In-Situ Starting Energy>
-117.679754

> <-In-Situ Final Energy>
27.3372254

> <In-Situ Gradient>
0.0009905085538

$$$$
3082543
  SciTegic09142310043D

 76 80  0  0  0  0            999 V2000
   11.8296   -0.6301   -7.3139 O   0  0  0  1  0  0
   12.2100    2.3256   -6.9361 O   0  0  0  1  0  0
   11.3839    5.7204  -12.2544 O   0  0  0  1  0  0
   11.2354    4.0648   -5.8127 O   0  0  0  1  0  0
   13.8875    4.3458   -7.1409 O   0  0  0  1  0  0
   14.5681    5.2809   -3.9056 O   0  0  0  1  0  0
   12.3555    6.2942   -3.1414 O   0  0  0  1  0  0
   10.5875    6.6298   -6.2128 O   0  0  0  1  0  0
   12.0629    0.1358  -10.5003 C   0  0  3  1  0  0
   13.1397    0.8697  -11.3532 C   0  0  1  1  0  0
   12.5727    1.9116  -12.3768 C   0  0  1  1  0  0
   13.6521   -0.5933   -8.9155 C   0  0  3  1  0  0
   12.7216   -1.1383  -10.0006 C   0  0  0  1  0  0
   11.1345    2.3426  -11.9456 C   0  0  2  1  0  0
   11.7273    0.8457   -9.1654 C   0  0  0  1  0  0
   12.6463    0.2428   -8.0811 C   0  0  1  1  0  0
   10.8158   -0.1417  -11.3430 C   0  0  0  1  0  0
   14.2890    1.3523  -10.4390 C   0  0  0  1  0  0
   10.1511    1.1598  -11.7981 C   0  0  0  1  0  0
   14.7983    0.2124   -9.5511 C   0  0  0  1  0  0
   10.5106    3.5351  -12.7131 C   0  0  0  1  0  0
   13.4936    3.1529  -12.4369 C   0  0  0  1  0  0
   12.5858    1.2637  -13.7837 C   0  0  0  1  0  0
   13.2130    1.3408   -7.1461 C   0  0  0  1  0  0
   12.9320    4.2859  -13.2864 C   0  0  0  1  0  0
   11.5689    4.6520  -12.7492 C   0  0  0  1  0  0
   10.0025    3.1785  -14.1214 C   0  0  0  1  0  0
    9.3358    4.1126  -11.9235 C   0  0  0  1  0  0
   12.3215    3.1435   -5.7933 C   0  0  2  1  0  0
   13.6250    3.9641   -5.8031 C   0  0  2  1  0  0
   13.5328    5.2051   -4.8808 C   0  0  1  1  0  0
   11.0132    4.8201   -4.6293 C   0  0  1  1  0  0
   12.3528    5.1237   -3.9254 C   0  0  2  1  0  0
   10.1774    6.0522   -4.9908 C   0  0  0  1  0  0
   12.3768   -1.2350   -6.8157 H   0  0
   13.0714    4.5768   -7.5724 H   0  0
   14.8678    6.1738   -3.6948 H   0  0
   13.2217    6.3921   -2.7508 H   0  0
   10.8888    5.9472   -6.8082 H   0  0
   13.6165    0.1009  -11.9631 H   0  0
   14.1321   -1.3967   -8.3723 H   0  0
   13.2039   -1.6848  -10.8038 H   0  0
   11.9783   -1.7942   -9.5572 H   0  0
   11.2663    2.7443  -10.9454 H   0  0
   11.8687    1.9191   -9.2360 H   0  0
   10.6825    0.6987   -8.8918 H   0  0
   10.0941   -0.7429  -10.7880 H   0  0
   11.0964   -0.7312  -12.2148 H   0  0
   15.1285    1.7245  -11.0256 H   0  0
   13.9623    2.1821   -9.8143 H   0  0
    9.6076    0.9721  -12.7202 H   0  0
    9.3948    1.4346  -11.0650 H   0  0
   15.4742    0.5978   -8.7877 H   0  0
   15.4003   -0.4623  -10.1606 H   0  0
   14.4786    2.8791  -12.8161 H   0  0
   13.6485    3.5617  -11.4383 H   0  0
   11.8681    0.4504  -13.8739 H   0  0
   13.5688    0.8528  -14.0167 H   0  0
   12.3770    1.9732  -14.5786 H   0  0
   14.0816    1.8282   -7.5845 H   0  0
   13.5422    0.9167   -6.1965 H   0  0
   12.8517    4.0370  -14.3427 H   0  0
   13.5712    5.1576  -13.1754 H   0  0
    8.9137    3.1501  -14.1544 H   0  0
   10.3023    2.1792  -14.4144 H   0  0
   10.3379    3.8867  -14.8802 H   0  0
    9.6410    4.3845  -10.9135 H   0  0
    8.5216    3.3945  -11.8547 H   0  0
    8.9426    5.0065  -12.4096 H   0  0
   12.2880    2.4966   -4.9275 H   0  0
   14.4540    3.3309   -5.4837 H   0  0
   13.4790    6.0891   -5.5188 H   0  0
   10.3733    4.2585   -3.9535 H   0  0
   12.5667    4.2854   -3.2604 H   0  0
   10.2028    6.7956   -4.2040 H   0  0
    9.1145    5.8124   -5.0544 H   0  0
  1 16  1  0
  2 24  1  0
  2 29  1  0
  3 26  2  0
  4 29  1  0
  4 32  1  0
  5 30  1  0
  6 31  1  0
  7 33  1  0
  8 34  1  0
  9 10  1  0
  9 13  1  0
  9 15  1  0
  9 17  1  0
 10 11  1  0
 10 18  1  0
 11 14  1  0
 11 22  1  0
 11 23  1  0
 12 13  1  0
 12 16  1  0
 12 20  1  0
 14 19  1  0
 14 21  1  0
 15 16  1  0
 16 24  1  0
 17 19  1  0
 18 20  1  0
 21 26  1  0
 21 27  1  0
 21 28  1  0
 22 25  1  0
 25 26  1  0
 29 30  1  0
 30 31  1  0
 31 33  1  0
 32 33  1  0
 32 34  1  0
  1 35  1  0
  5 36  1  0
  6 37  1  0
  7 38  1  0
  8 39  1  0
 10 40  1  0
 12 41  1  0
 13 42  1  0
 13 43  1  0
 14 44  1  0
 15 45  1  0
 15 46  1  0
 17 47  1  0
 17 48  1  0
 18 49  1  0
 18 50  1  0
 19 51  1  0
 19 52  1  0
 20 53  1  0
 20 54  1  0
 22 55  1  0
 22 56  1  0
 23 57  1  0
 23 58  1  0
 23 59  1  0
 24 60  1  0
 24 61  1  0
 25 62  1  0
 25 63  1  0
 27 64  1  0
 27 65  1  0
 27 66  1  0
 28 67  1  0
 28 68  1  0
 28 69  1  0
 29 70  1  0
 30 71  1  0
 31 72  1  0
 32 73  1  0
 33 74  1  0
 34 75  1  0
 34 76  1  0
M  END
> <Name>
3082543

> <Binding Energy>
-48.9081

> <Ligand Energy>
110.306

> <Protein Energy>
-7801.1566

> <Complex Energy>
-7739.7587

> <Complex Entropy>
-31.4878

> <Protein Entropy>
-31.4717

> <Ligand Entropy>
-20.5901

> <Entropic Energy>
20.5739

> <AbsoluteEnergy>
65.4759

> <ConfNumber>
73

> <IonizationIndex>
1

> <MOL_NUMBER>
860

> <NumberOfIonizations>
1

> <NumberOfStereoisomers>
512

> <NumberOfTautomers>
1

> <PUBCHEM_ATOM_DEF_STEREO_COUNT>
0

> <PUBCHEM_ATOM_UDEF_STEREO_COUNT>
11

> <PUBCHEM_BONDANNOTATIONS>
16  1  3
10  18  3
11  23  3
12  20  3
14  19  3
29  2  3
32  34  3
30  5  3
31  6  3
33  7  3
9  17  3

> <PUBCHEM_BOND_DEF_STEREO_COUNT>
0

> <PUBCHEM_BOND_UDEF_STEREO_COUNT>
0

> <PUBCHEM_CACTVS_COMPLEXITY>
817

> <PUBCHEM_CACTVS_HBOND_ACCEPTOR>
8

> <PUBCHEM_CACTVS_HBOND_DONOR>
5

> <PUBCHEM_CACTVS_ROTATABLE_BOND>
4

> <PUBCHEM_CACTVS_SUBSKEYS>
AAADcfB4PAAAAAAAAAAAAAAAAAAAAYAAAAA0YMEABgAAAADAAAAAGgAACAAAD1SwgAMCCAAABgAIAIAQAAAAAAAAAAAAAAEAAAAREBIAAAAiQAAFAAAHAAHI6PyPgAAAAAAAAACAAAQAACAAAYAADAAAAA==

> <PUBCHEM_CACTVS_TAUTO_COUNT>
2

> <PUBCHEM_CACTVS_TPSA>
137

> <PUBCHEM_COMPONENT_COUNT>
1

> <PUBCHEM_COMPOUND_CANONICALIZED>
1

> <PUBCHEM_COMPOUND_CID>
3082543

> <PUBCHEM_COORDINATE_TYPE>
1
5
255

> <PUBCHEM_EXACT_MASS>
482.28796829

> <PUBCHEM_HEAVY_ATOM_COUNT>
34

> <PUBCHEM_ISOTOPIC_ATOM_COUNT>
0

> <PUBCHEM_IUPAC_CAS_NAME>
14-hydroxy-5,5,9-trimethyl-14-[[3,4,5-trihydroxy-6-(hydroxymethyl)-2-oxanyl]oxymethyl]-6-tetracyclo[11.2.1.01,10.04,9]hexadecanone

> <PUBCHEM_IUPAC_INCHI>
InChI=1S/C26H42O8/c1-23(2)16-6-9-25-10-14(4-5-17(25)24(16,3)8-7-18(23)28)26(32,12-25)13-33-22-21(31)20(30)19(29)15(11-27)34-22/h14-17,19-22,27,29-32H,4-13H2,1-3H3

> <PUBCHEM_IUPAC_INCHIKEY>
XOCBTSXQUYSHOW-UHFFFAOYSA-N

> <PUBCHEM_IUPAC_NAME>
14-hydroxy-5,5,9-trimethyl-14-[[3,4,5-trihydroxy-6-(hydroxymethyl)oxan-2-yl]oxymethyl]tetracyclo[11.2.1.01,10.04,9]hexadecan-6-one

> <PUBCHEM_IUPAC_NAME_MARKUP>
14-hydroxy-5,5,9-trimethyl-14-[[3,4,5-trihydroxy-6-(hydroxymethyl)oxan-2-yl]oxymethyl]tetracyclo[11.2.1.0<SUP>1,10</SUP>.0<SUP>4,9</SUP>]hexadecan-6-one

> <PUBCHEM_IUPAC_OPENEYE_NAME>
14-hydroxy-5,5,9-trimethyl-14-[[3,4,5-trihydroxy-6-(hydroxymethyl)tetrahydropyran-2-yl]oxymethyl]tetracyclo[11.2.1.01,10.04,9]hexadecan-6-one

> <PUBCHEM_IUPAC_SYSTEMATIC_NAME>
14-[[6-(hydroxymethyl)-3,4,5-tris(oxidanyl)oxan-2-yl]oxymethyl]-5,5,9-trimethyl-14-oxidanyl-tetracyclo[11.2.1.01,10.04,9]hexadecan-6-one

> <PUBCHEM_IUPAC_TRADITIONAL_NAME>
14-hydroxy-5,5,9-trimethyl-14-[(3,4,5-trihydroxy-6-methylol-tetrahydropyran-2-yl)oxymethyl]tetracyclo[11.2.1.01,10.04,9]hexadecan-6-one

> <PUBCHEM_MOLECULAR_FORMULA>
C26H42O8

> <PUBCHEM_MOLECULAR_WEIGHT>
482.6

> <PUBCHEM_MONOISOTOPIC_WEIGHT>
482.28796829

> <PUBCHEM_OPENEYE_CAN_SMILES>
CC1(C2CCC34CC(CCC3C2(CCC1=O)C)C(C4)(COC5C(C(C(C(O5)CO)O)O)O)O)C

> <PUBCHEM_OPENEYE_ISO_SMILES>
CC1(C2CCC34CC(CCC3C2(CCC1=O)C)C(C4)(COC5C(C(C(C(O5)CO)O)O)O)O)C

> <PUBCHEM_TOTAL_CHARGE>
0

> <PUBCHEM_XLOGP3_AA>
1.4

> <RelativeEnergy>
7.83438

> <StereoisomerIndex>
309

> <TautomerIndex>
1

> <POSE_NUMBER>
1

> <LibDockScore>
127.3991

> <HotSpots>
13.41,6.07,-3.65,P,65,6
11.21,4.87,-14.65,A,18,25
9.01,2.67,-14.05,A,21,27

> <-In-Situ Starting Energy>
-1388.72906

> <-In-Situ Final Energy>
-58.9306156

> <In-Situ Gradient>
0.0009642119221

$$$$
433737
  SciTegic09142310043D

 38 42  0  0  0  0            999 V2000
    5.5672    3.1572    2.3396 O   0  0  0  1  0  0
    6.2265    1.3947    3.3597 O   0  0  0  1  0  0
    6.7572    3.8350    0.2349 O   0  0  0  1  0  0
    6.3024   -0.4126   -0.6113 O   0  0  0  1  0  0
    4.1913    0.4305   -0.8293 O   0  0  0  1  0  0
    6.2137    1.1144    1.9402 C   0  0  2  1  0  0
    7.3659    1.7254    1.2208 C   0  0  2  1  0  0
    6.4171    2.4742    0.3296 C   0  0  1  1  0  0
    5.1419    1.8184    2.7112 C   0  0  3  1  0  0
    5.1972    2.3162    1.2540 C   0  0  1  1  0  0
    6.1479    1.8599   -1.0678 C   0  0  3  1  0  0
    6.2638    0.0382    2.9919 C   0  0  0  1  0  0
    8.1514    0.6367    0.5399 C   0  0  0  1  0  0
    7.6049    0.1303   -0.7768 C   0  0  3  1  0  0
    7.4233    1.3118   -1.7108 C   0  0  1  1  0  0
    8.3320    2.6073    2.0548 C   0  0  0  1  0  0
    5.4128    0.5289   -0.8418 C   0  0  0  1  0  0
    7.3580    0.8510   -3.1509 C   0  0  0  1  0  0
    6.0059    0.5727   -3.7171 C   0  0  0  1  0  0
    8.3157    0.9556   -4.0648 C   0  0  0  1  0  0
    7.4368    3.9448   -0.4112 H   0  0
    4.1145    1.5408    2.8425 H   0  0
    4.2157    2.4535    0.7997 H   0  0
    5.5580    2.5319   -1.6814 H   0  0
    5.3933   -0.5403    3.2800 H   0  0
    7.2178   -0.4790    3.0555 H   0  0
    9.0277    1.1744    0.2710 H   0  0
    8.4185   -0.1716    1.2179 H   0  0
    8.3089   -0.5873   -1.1636 H   0  0
    8.2614    2.0025   -1.6277 H   0  0
    8.9163    2.0271    2.7568 H   0  0
    7.8641    3.4347    2.5851 H   0  0
    9.0802    3.0377    1.3985 H   0  0
    5.3903    1.3930   -3.4012 H   0  0
    5.5859   -0.3562   -3.3765 H   0  0
    5.9965    0.5797   -4.8068 H   0  0
    9.1904    1.5462   -3.9232 H   0  0
    8.1996    0.4224   -4.9875 H   0  0
  1  9  1  0
  1 10  1  0
  2  6  1  0
  2 12  1  0
  3  8  1  0
  4 14  1  0
  4 17  1  0
  5 17  2  0
  6  7  1  0
  6  9  1  0
  6 12  1  0
  7  8  1  0
  7 13  1  0
  7 16  1  0
  8 10  1  0
  8 11  1  0
  9 10  1  0
 11 15  1  0
 11 17  1  0
 13 14  1  0
 14 15  1  0
 15 18  1  0
 18 19  1  0
 18 20  2  0
  3 21  1  0
  9 22  1  0
 10 23  1  0
 11 24  1  0
 12 25  1  0
 12 26  1  0
 13 27  1  0
 13 28  1  0
 14 29  1  0
 15 30  1  0
 16 31  1  0
 16 32  1  0
 16 33  1  0
 19 34  1  0
 19 35  1  0
 19 36  1  0
 20 37  1  0
 20 38  1  0
M  END
> <Name>
433737

> <Binding Energy>
-55.8676

> <Ligand Energy>
128.7719

> <Protein Energy>
-7801.1566

> <Complex Energy>
-7728.2524

> <Complex Entropy>
-31.479

> <Protein Entropy>
-31.4717

> <Ligand Entropy>
-18.8152

> <Entropic Energy>
18.8079

> <AbsoluteEnergy>
58.7967

> <ConfNumber>
1

> <IonizationIndex>
1

> <MOL_NUMBER>
1068

> <NumberOfIonizations>
1

> <NumberOfStereoisomers>
64

> <NumberOfTautomers>
1

> <PUBCHEM_ATOM_DEF_STEREO_COUNT>
0

> <PUBCHEM_ATOM_UDEF_STEREO_COUNT>
8

> <PUBCHEM_BONDANNOTATIONS>
10  1  3
9  1  3
11  17  3
14  13  3
15  18  3
8  3  3
6  12  3
7  16  3

> <PUBCHEM_BOND_DEF_STEREO_COUNT>
0

> <PUBCHEM_BOND_UDEF_STEREO_COUNT>
0

> <PUBCHEM_CACTVS_COMPLEXITY>
573

> <PUBCHEM_CACTVS_HBOND_ACCEPTOR>
5

> <PUBCHEM_CACTVS_HBOND_DONOR>
1

> <PUBCHEM_CACTVS_ROTATABLE_BOND>
1

> <PUBCHEM_CACTVS_SUBSKEYS>
AAADceBwOAAAAAAAAAAAAAAAEiQAAaIAAAA0QAAABIAAAGAAAAAAGgAACAAAD1SggAICCAAABgCIAgDSCAAAAAAgAAAAAAEAAAgBABYAAQACQAAF4AADAAHK7PzPgAAAAAAAAADCAAYAADAAAYQADCAAAA==

> <PUBCHEM_CACTVS_TAUTO_COUNT>
1

> <PUBCHEM_CACTVS_TPSA>
71.6

> <PUBCHEM_COMPONENT_COUNT>
1

> <PUBCHEM_COMPOUND_CANONICALIZED>
1

> <PUBCHEM_COMPOUND_CID>
433737

> <PUBCHEM_COORDINATE_TYPE>
1
5
255

> <PUBCHEM_EXACT_MASS>
278.11542367

> <PUBCHEM_HEAVY_ATOM_COUNT>
20

> <PUBCHEM_ISOTOPIC_ATOM_COUNT>
0

> <PUBCHEM_IUPAC_CAS_NAME>
2-hydroxy-7-methyl-12-(1-methylethenyl)-11-spiro[4,10-dioxatetracyclo[7.2.1.02,7.03,5]dodecane-6,2'-oxirane]one

> <PUBCHEM_IUPAC_INCHI>
InChI=1S/C15H18O5/c1-6(2)8-7-4-13(3)14(5-18-14)10-11(20-10)15(13,17)9(8)12(16)19-7/h7-11,17H,1,4-5H2,2-3H3

> <PUBCHEM_IUPAC_INCHIKEY>
BWWDLKVKPVKBGJ-UHFFFAOYSA-N

> <PUBCHEM_IUPAC_NAME>
2-hydroxy-7-methyl-12-prop-1-en-2-ylspiro[4,10-dioxatetracyclo[7.2.1.02,7.03,5]dodecane-6,2'-oxirane]-11-one

> <PUBCHEM_IUPAC_NAME_MARKUP>
2-hydroxy-7-methyl-12-prop-1-en-2-ylspiro[4,10-dioxatetracyclo[7.2.1.0<SUP>2,7</SUP>.0<SUP>3,5</SUP>]dodecane-6,2&apos;-oxirane]-11-one

> <PUBCHEM_IUPAC_OPENEYE_NAME>
2-hydroxy-12-isopropenyl-7-methyl-spiro[4,10-dioxatetracyclo[7.2.1.02,7.03,5]dodecane-6,2'-oxirane]-11-one

> <PUBCHEM_IUPAC_SYSTEMATIC_NAME>
7-methyl-2-oxidanyl-12-prop-1-en-2-yl-spiro[4,10-dioxatetracyclo[7.2.1.02,7.03,5]dodecane-6,2'-oxirane]-11-one

> <PUBCHEM_IUPAC_TRADITIONAL_NAME>
2-hydroxy-12-isopropenyl-7-methyl-spiro[4,10-dioxatetracyclo[7.2.1.02,7.03,5]dodecane-6,2'-oxirane]-11-one

> <PUBCHEM_MOLECULAR_FORMULA>
C15H18O5

> <PUBCHEM_MOLECULAR_WEIGHT>
278.3

> <PUBCHEM_MONOISOTOPIC_WEIGHT>
278.11542367

> <PUBCHEM_OPENEYE_CAN_SMILES>
CC(=C)C1C2CC3(C4(CO4)C5C(C3(C1C(=O)O2)O)O5)C

> <PUBCHEM_OPENEYE_ISO_SMILES>
CC(=C)C1C2CC3(C4(CO4)C5C(C3(C1C(=O)O2)O)O5)C

> <PUBCHEM_TOTAL_CHARGE>
0

> <PUBCHEM_XLOGP3_AA>
0.5

> <RelativeEnergy>
0

> <StereoisomerIndex>
12

> <TautomerIndex>
1

> <POSE_NUMBER>
1

> <LibDockScore>
98.7598

> <HotSpots>
6.01,1.67,2.54,A,83,9
7.01,-0.53,1.54,A,78,12
6.41,0.47,-4.25,A,40,19

> <-In-Situ Starting Energy>
-481.460814

> <-In-Situ Final Energy>
-105.962174

> <In-Situ Gradient>
0.0009527461851

$$$$
443314
  SciTegic09142310043D

 86 86  0  0  0  0            999 V2000
   12.6841    4.0038   -9.4841 O   0  0  0  1  0  0
   12.0915    1.3493  -10.5088 O   0  0  0  1  0  0
   10.3518    3.0978  -12.0300 O   0  0  0  1  0  0
   12.0698    1.3962   -7.0141 O   0  0  0  1  0  0
   12.2754    3.8199   -6.1255 O   0  0  0  1  0  0
   12.3077   -1.4831  -10.8536 O   0  0  0  1  0  0
    9.4121    2.4975  -14.5158 O   0  0  0  1  0  0
   10.6217    6.1924   -5.1066 O   0  0  0  1  0  0
   12.4164   -0.3759   -5.1329 O   0  0  0  1  0  0
    8.5112    5.6024   -4.6802 O   0  0  0  1  0  0
   11.9186    3.0424   -8.7826 C   0  0  1  1  0  0
   11.1937    2.2583   -9.8765 C   0  0  1  1  0  0
   10.8010    3.4514  -10.7450 C   0  0  1  1  0  0
   12.8231    2.2882   -7.8068 C   0  0  1  1  0  0
   12.0787    4.2904  -10.7261 C   0  0  0  1  0  0
   13.3930    3.2939   -6.8066 C   0  0  0  1  0  0
   11.6311    0.6900  -11.6770 C   0  0  0  1  0  0
   10.1239    4.1555  -12.9307 C   0  0  0  1  0  0
   11.9624    0.0627   -7.4533 C   0  0  0  1  0  0
   12.4310   -0.5873  -11.9390 C   0  0  0  1  0  0
   10.3625    3.5221  -14.2900 C   0  0  0  1  0  0
   12.5237    4.6858   -5.0511 C   0  0  0  1  0  0
   11.5568   -0.7135   -6.2071 C   0  0  0  1  0  0
    6.3022    9.2858   -1.1221 C   0  0  0  1  0  0
    5.7296   10.5574   -0.4598 C   0  0  0  1  0  0
    6.5787    9.3925   -2.6416 C   0  0  0  1  0  0
   11.1666    5.0491   -4.4505 C   0  0  0  1  0  0
    6.7487   11.6769   -0.6050 C   0  0  0  1  0  0
    7.6116    8.4031   -3.1665 C   0  0  0  1  0  0
    6.5771   13.1015   -0.0454 C   0  0  0  1  0  0
    7.6401    8.3913   -4.6890 C   0  0  0  1  0  0
    7.1325   13.3394    1.3668 C   0  0  0  1  0  0
    8.9376    7.8798   -5.3253 C   0  0  0  1  0  0
    6.8238   14.7804    1.8330 C   0  0  0  1  0  0
    9.3333    6.4460   -4.9932 C   0  0  0  1  0  0
    6.9706   15.2056    3.2781 C   0  0  0  1  0  0
   12.6615   -1.0585  -10.0802 H   0  0
    9.3213    1.9963  -13.7094 H   0  0
   12.7123    0.5255   -5.2460 H   0  0
   11.1553    3.5738   -8.2129 H   0  0
   10.3242    1.7229   -9.4969 H   0  0
   10.0164    4.0161  -10.2474 H   0  0
   13.6309    1.7743   -8.3299 H   0  0
   11.8798    5.3587  -10.8115 H   0  0
   12.7534    3.9905  -11.5283 H   0  0
   13.9440    4.0933   -7.3027 H   0  0
   14.0670    2.8017   -6.1048 H   0  0
   11.7594    1.3387  -12.5417 H   0  0
   10.5706    0.4493  -11.5824 H   0  0
   10.8227    4.9698  -12.7816 H   0  0
    9.1112    4.5469  -12.8200 H   0  0
   11.2251   -0.0302   -8.2498 H   0  0
   12.9331   -0.2992   -7.7927 H   0  0
   12.0447   -1.0892  -12.8275 H   0  0
   13.4852   -0.3678  -12.1432 H   0  0
   10.3110    4.2563  -15.0910 H   0  0
   11.3704    3.0987  -14.3357 H   0  0
   13.1436    4.1758   -4.3121 H   0  0
   13.0591    5.5744   -5.3873 H   0  0
   11.6187   -1.7838   -6.3894 H   0  0
   10.5276   -0.4876   -5.9197 H   0  0
    5.6546    8.4300   -0.9261 H   0  0
    7.2364    9.0733   -0.6102 H   0  0
    4.7743   10.8300   -0.8730 H   0  0
    5.5696   10.3427    0.5970 H   0  0
    6.9133   10.3749   -2.9522 H   0  0
    5.6725    9.2364   -3.2004 H   0  0
   11.3228    5.2991   -3.4068 H   0  0
   10.4746    4.2063   -4.5021 H   0  0
    7.0073   11.8195   -1.6475 H   0  0
    7.5783   11.1985   -0.1221 H   0  0
    8.5964    8.7068   -2.8241 H   0  0
    7.3858    7.4096   -2.7871 H   0  0
    7.0683   13.7844   -0.7353 H   0  0
    5.5625   13.4422   -0.0904 H   0  0
    7.5027    9.4199   -5.0069 H   0  0
    6.7851    7.8582   -5.0879 H   0  0
    6.7698   12.5335    1.9925 H   0  0
    8.2069   13.2230    1.4004 H   0  0
    8.8408    7.8760   -6.3954 H   0  0
    9.7342    8.5660   -5.0711 H   0  0
    7.5717   15.4196    1.3985 H   0  0
    5.8129   15.0253    1.5227 H   0  0
    7.5737   16.1060    3.3881 H   0  0
    7.4241   14.3643    3.7566 H   0  0
    6.0230   15.4028    3.7774 H   0  0
  1 11  1  0
  1 15  1  0
  2 12  1  0
  2 17  1  0
  3 13  1  0
  3 18  1  0
  4 14  1  0
  4 19  1  0
  5 16  1  0
  5 22  1  0
  6 20  1  0
  7 21  1  0
  8 27  1  0
  8 35  1  0
  9 23  1  0
 10 35  2  0
 11 12  1  0
 11 14  1  0
 12 13  1  0
 13 15  1  0
 14 16  1  0
 17 20  1  0
 18 21  1  0
 19 23  1  0
 22 27  1  0
 24 25  1  0
 24 26  1  0
 25 28  1  0
 26 29  1  0
 28 30  1  0
 29 31  1  0
 30 32  1  0
 31 33  1  0
 32 34  1  0
 33 35  1  0
 34 36  1  0
  6 37  1  0
  7 38  1  0
  9 39  1  0
 11 40  1  0
 12 41  1  0
 13 42  1  0
 14 43  1  0
 15 44  1  0
 15 45  1  0
 16 46  1  0
 16 47  1  0
 17 48  1  0
 17 49  1  0
 18 50  1  0
 18 51  1  0
 19 52  1  0
 19 53  1  0
 20 54  1  0
 20 55  1  0
 21 56  1  0
 21 57  1  0
 22 58  1  0
 22 59  1  0
 23 60  1  0
 23 61  1  0
 24 62  1  0
 24 63  1  0
 25 64  1  0
 25 65  1  0
 26 66  1  0
 26 67  1  0
 27 68  1  0
 27 69  1  0
 28 70  1  0
 28 71  1  0
 29 72  1  0
 29 73  1  0
 30 74  1  0
 30 75  1  0
 31 76  1  0
 31 77  1  0
 32 78  1  0
 32 79  1  0
 33 80  1  0
 33 81  1  0
 34 82  1  0
 34 83  1  0
 36 84  1  0
 36 85  1  0
 36 86  1  0
M  END
> <Name>
443314

> <Binding Energy>
-67.736

> <Ligand Energy>
51.2601

> <Protein Energy>
-7801.1566

> <Complex Energy>
-7817.6325

> <Complex Entropy>
-31.4885

> <Protein Entropy>
-31.4717

> <Ligand Entropy>
-21.3675

> <Entropic Energy>
21.3506

> <AbsoluteEnergy>
42.0682

> <ConfNumber>
128

> <IonizationIndex>
1

> <MOL_NUMBER>
1101

> <NumberOfIonizations>
1

> <NumberOfStereoisomers>
16

> <NumberOfTautomers>
1

> <PUBCHEM_ATOM_DEF_STEREO_COUNT>
0

> <PUBCHEM_ATOM_UDEF_STEREO_COUNT>
4

> <PUBCHEM_BONDANNOTATIONS>
11  37  3
12  38  3
13  39  3
14  40  3

> <PUBCHEM_BOND_DEF_STEREO_COUNT>
0

> <PUBCHEM_BOND_UDEF_STEREO_COUNT>
0

> <PUBCHEM_CACTVS_COMPLEXITY>
507

> <PUBCHEM_CACTVS_HBOND_ACCEPTOR>
10

> <PUBCHEM_CACTVS_HBOND_DONOR>
3

> <PUBCHEM_CACTVS_ROTATABLE_BOND>
26

> <PUBCHEM_CACTVS_SUBSKEYS>
AAADcfB4PAAAAAAAAAAAAAAAAAAAASAAAAAAAAAAAAAAAAAAAAAAGgAACAAACBSggAICCAAABgAIAACQCAAAAAAAAAAAAAEAAAABEBIAAAACAAAFAAADAAHI6KyAAAAAAAAAAAAAAAAAAAAAAAAAAAAAAA==

> <PUBCHEM_CACTVS_TAUTO_COUNT>
1

> <PUBCHEM_CACTVS_TPSA>
133

> <PUBCHEM_COMPONENT_COUNT>
1

> <PUBCHEM_COMPOUND_CANONICALIZED>
1

> <PUBCHEM_COMPOUND_CID>
443314

> <PUBCHEM_COORDINATE_TYPE>
1
5
255

> <PUBCHEM_EXACT_MASS>
522.34039779

> <PUBCHEM_HEAVY_ATOM_COUNT>
36

> <PUBCHEM_ISOTOPIC_ATOM_COUNT>
0

> <PUBCHEM_IUPAC_CAS_NAME>
dodecanoic acid 2-[2-[3,4-bis(2-hydroxyethoxy)-2-oxolanyl]-2-(2-hydroxyethoxy)ethoxy]ethyl ester

> <PUBCHEM_IUPAC_INCHI>
InChI=1S/C26H50O10/c1-2-3-4-5-6-7-8-9-10-11-24(30)34-19-18-31-20-22(32-15-12-27)26-25(35-17-14-29)23(21-36-26)33-16-13-28/h22-23,25-29H,2-21H2,1H3

> <PUBCHEM_IUPAC_INCHIKEY>
HMFKFHLTUCJZJO-UHFFFAOYSA-N

> <PUBCHEM_IUPAC_NAME>
2-[2-[3,4-bis(2-hydroxyethoxy)oxolan-2-yl]-2-(2-hydroxyethoxy)ethoxy]ethyl dodecanoate

> <PUBCHEM_IUPAC_NAME_MARKUP>
2-[2-[3,4-bis(2-hydroxyethoxy)oxolan-2-yl]-2-(2-hydroxyethoxy)ethoxy]ethyl dodecanoate

> <PUBCHEM_IUPAC_OPENEYE_NAME>
2-[2-[3,4-bis(2-hydroxyethoxy)tetrahydrofuran-2-yl]-2-(2-hydroxyethoxy)ethoxy]ethyl dodecanoate

> <PUBCHEM_IUPAC_SYSTEMATIC_NAME>
2-[2-[3,4-bis(2-hydroxyethyloxy)oxolan-2-yl]-2-(2-hydroxyethyloxy)ethoxy]ethyl dodecanoate

> <PUBCHEM_IUPAC_TRADITIONAL_NAME>
lauric acid 2-[2-[3,4-bis(2-hydroxyethoxy)tetrahydrofuran-2-yl]-2-(2-hydroxyethoxy)ethoxy]ethyl ester

> <PUBCHEM_MOLECULAR_FORMULA>
C26H50O10

> <PUBCHEM_MOLECULAR_WEIGHT>
522.7

> <PUBCHEM_MONOISOTOPIC_WEIGHT>
522.34039779

> <PUBCHEM_OPENEYE_CAN_SMILES>
CCCCCCCCCCCC(=O)OCCOCC(C1C(C(CO1)OCCO)OCCO)OCCO

> <PUBCHEM_OPENEYE_ISO_SMILES>
CCCCCCCCCCCC(=O)OCCOCC(C1C(C(CO1)OCCO)OCCO)OCCO

> <PUBCHEM_TOTAL_CHARGE>
0

> <PUBCHEM_XLOGP3_AA>
2.5

> <RelativeEnergy>
12.3003

> <StereoisomerIndex>
1

> <TautomerIndex>
1

> <POSE_NUMBER>
1

> <LibDockScore>
171.6223

> <HotSpots>
11.21,4.87,-14.65,A,18,21
8.61,9.67,-3.85,A,41,29
7.01,13.87,1.54,A,79,32

> <-In-Situ Starting Energy>
-3499.03565

> <-In-Situ Final Energy>
-15.2376809

> <In-Situ Gradient>
0.0009057109796

$$$$
494227
  SciTegic09142310043D

 59 64  0  0  0  0            999 V2000
   13.7471    5.3951  -11.5181 O   0  0  0  1  0  0
    9.9857   -0.4765  -11.2191 O   0  0  0  1  0  0
   14.1042    5.3139   -9.4182 N   0  3  1  1  0  0
   12.0118    4.1380  -10.2123 C   0  0  3  1  0  0
   11.4385    3.1545  -11.3082 C   0  0  2  1  0  0
   11.4316    1.5817  -11.0200 C   0  0  3  1  0  0
   11.9008    3.5382   -8.7944 C   0  0  2  1  0  0
   12.4870    4.5252   -7.7466 C   0  0  3  1  0  0
   13.5040    4.4929  -10.4585 C   0  0  1  1  0  0
   11.7625    1.1449   -9.5789 C   0  0  0  1  0  0
   12.5612    2.1457   -8.7583 C   0  0  0  1  0  0
   11.1569    5.4289  -10.2328 C   0  0  0  1  0  0
   12.2580    0.9213  -12.1069 C   0  0  0  1  0  0
   12.0390    3.5162  -12.7198 C   0  0  0  1  0  0
   10.0651    0.9345  -11.3850 C   0  0  1  1  0  0
   11.3680    1.1999  -13.3344 C   0  0  3  1  0  0
   13.9535    4.7767   -8.0774 C   0  0  0  1  0  0
   11.7444    5.8831   -7.7564 C   0  0  0  1  0  0
   11.7093    2.5770  -13.8926 C   0  0  0  1  0  0
   11.4610    6.4781   -9.1468 C   0  0  0  1  0  0
    9.9408    1.2833  -12.8336 C   0  0  0  1  0  0
   12.3893    3.9566   -6.3165 C   0  0  0  1  0  0
   15.4245    5.6083   -9.9526 C   0  0  0  1  0  0
   15.0814    5.8464  -11.4139 C   0  0  0  1  0  0
    8.8793    1.9853  -13.2696 C   0  0  0  1  0  0
    9.2183   -0.7989  -11.7030 H   0  0
   13.6057    6.1836   -9.4367 H   0  0
   10.3802    3.4062  -11.3756 H   0  0
   10.8462    3.3989   -8.5651 H   0  0
   14.1021    3.5885  -10.5932 H   0  0
   12.2594    0.1740   -9.5817 H   0  0
   10.8283    0.9772   -9.0401 H   0  0
   12.5976    1.7599   -7.7411 H   0  0
   13.5921    2.1598   -9.1049 H   0  0
   11.2035    5.8962  -11.2086 H   0  0
   10.1186    5.1377  -10.1313 H   0  0
   12.3368   -0.1537  -11.9353 H   0  0
   13.2761    1.3019  -12.1900 H   0  0
   11.7888    4.5380  -12.9970 H   0  0
   13.1243    3.4741  -12.6696 H   0  0
    9.2915    1.4207  -10.7955 H   0  0
   11.4732    0.3949  -14.0622 H   0  0
   14.3291    5.5300   -7.3863 H   0  0
   14.5363    3.8588   -7.9997 H   0  0
   12.2913    6.6190   -7.1632 H   0  0
   10.8138    5.7754   -7.2161 H   0  0
   10.9043    3.0090  -14.4795 H   0  0
   12.5669    2.5093  -14.5638 H   0  0
   10.6145    7.1623   -9.0750 H   0  0
   12.2677    7.1387   -9.4519 H   0  0
   13.0543    3.1077   -6.1597 H   0  0
   11.3749    3.6290   -6.0881 H   0  0
   12.6676    4.7061   -5.5744 H   0  0
   15.8399    6.4873   -9.4630 H   0  0
   16.0746    4.7421   -9.8175 H   0  0
   15.7341    5.2748  -12.0755 H   0  0
   15.1344    6.9032  -11.6718 H   0  0
    8.0084    2.1210  -12.6559 H   0  0
    8.8499    2.4348  -14.2440 H   0  0
  1  9  1  0
  1 24  1  0
  2 15  1  0
  3  9  1  0
  3 17  1  0
  3 23  1  0
  4  5  1  0
  4  7  1  0
  4  9  1  0
  4 12  1  0
  5  6  1  0
  5 14  1  0
  6 10  1  0
  6 13  1  0
  6 15  1  0
  7  8  1  0
  7 11  1  0
  8 17  1  0
  8 18  1  0
  8 22  1  0
 10 11  1  0
 12 20  1  0
 13 16  1  0
 14 19  1  0
 15 21  1  0
 16 19  1  0
 16 21  1  0
 18 20  1  0
 21 25  2  0
 23 24  1  0
  2 26  1  0
  3 27  1  0
  5 28  1  0
  7 29  1  0
  9 30  1  0
 10 31  1  0
 10 32  1  0
 11 33  1  0
 11 34  1  0
 12 35  1  0
 12 36  1  0
 13 37  1  0
 13 38  1  0
 14 39  1  0
 14 40  1  0
 15 41  1  0
 16 42  1  0
 17 43  1  0
 17 44  1  0
 18 45  1  0
 18 46  1  0
 19 47  1  0
 19 48  1  0
 20 49  1  0
 20 50  1  0
 22 51  1  0
 22 52  1  0
 22 53  1  0
 23 54  1  0
 23 55  1  0
 24 56  1  0
 24 57  1  0
 25 58  1  0
 25 59  1  0
M  CHG  1   3   1
M  END
> <Name>
494227

> <Binding Energy>
-100.2294

> <Ligand Energy>
125.6742

> <Protein Energy>
-7801.1566

> <Complex Energy>
-7775.7118

> <Complex Entropy>
-31.4835

> <Protein Entropy>
-31.4717

> <Ligand Entropy>
-19.513

> <Entropic Energy>
19.5011

> <AbsoluteEnergy>
55.5027

> <ConfNumber>
7

> <Ionization pH>
7.5

> <IonizationIndex>
1

> <MOL_NUMBER>
1123

> <NumberOfIonizations>
1

> <NumberOfStereoisomers>
32

> <NumberOfTautomers>
1

> <PUBCHEM_ATOM_DEF_STEREO_COUNT>
0

> <PUBCHEM_ATOM_UDEF_STEREO_COUNT>
8

> <PUBCHEM_BONDANNOTATIONS>
15  39  3
16  40  3
4  12  3
5  26  3
6  10  3
7  27  3
8  22  3
9  28  3

> <PUBCHEM_BOND_DEF_STEREO_COUNT>
0

> <PUBCHEM_BOND_UDEF_STEREO_COUNT>
0

> <PUBCHEM_CACTVS_COMPLEXITY>
634

> <PUBCHEM_CACTVS_HBOND_ACCEPTOR>
3

> <PUBCHEM_CACTVS_HBOND_DONOR>
1

> <PUBCHEM_CACTVS_ROTATABLE_BOND>
0

> <PUBCHEM_CACTVS_SUBSKEYS>
AAADcfB6MAAAAAAAAAAAAAAAAAAAAeIAAAA8YMEABgAWAFjwAAAAHgAACAAADxThgAYCAAMABgCAAgBCAAAAAAAgAAAAAAAIAAgCFAIAgQAPQAAEgACQEAGQ8P4PgAAAAAAAAACAAAQAACAAAYAABAAAAA==

> <PUBCHEM_CACTVS_TAUTO_COUNT>
1

> <PUBCHEM_CACTVS_TPSA>
32.7

> <PUBCHEM_COMPONENT_COUNT>
1

> <PUBCHEM_COMPOUND_CANONICALIZED>
1

> <PUBCHEM_COMPOUND_CID>
494227

> <PUBCHEM_COORDINATE_TYPE>
1
5
255

> <PUBCHEM_EXACT_MASS>
343.251129295

> <PUBCHEM_HEAVY_ATOM_COUNT>
25

> <PUBCHEM_ISOTOPIC_ATOM_COUNT>
0

> <PUBCHEM_IUPAC_CAS_NAME>
12-methyl-6-methylene-17-oxa-14-azahexacyclo[10.6.3.15,8.01,11.02,8.014,18]docosan-7-ol

> <PUBCHEM_IUPAC_INCHI>
InChI=1S/C22H33NO2/c1-14-15-4-5-17-21(12-15,18(14)24)9-6-16-20(2)7-3-8-22(16,17)19-23(13-20)10-11-25-19/h15-19,24H,1,3-13H2,2H3

> <PUBCHEM_IUPAC_INCHIKEY>
MGAZMNWJFPAAIU-UHFFFAOYSA-N

> <PUBCHEM_IUPAC_NAME>
12-methyl-6-methylidene-17-oxa-14-azahexacyclo[10.6.3.15,8.01,11.02,8.014,18]docosan-7-ol

> <PUBCHEM_IUPAC_NAME_MARKUP>
12-methyl-6-methylidene-17-oxa-14-azahexacyclo[10.6.3.1<SUP>5,8</SUP>.0<SUP>1,11</SUP>.0<SUP>2,8</SUP>.0<SUP>14,18</SUP>]docosan-7-ol

> <PUBCHEM_IUPAC_OPENEYE_NAME>
12-methyl-6-methylene-17-oxa-14-azahexacyclo[10.6.3.15,8.01,11.02,8.014,18]docosan-7-ol

> <PUBCHEM_IUPAC_SYSTEMATIC_NAME>
12-methyl-6-methylidene-17-oxa-14-azahexacyclo[10.6.3.15,8.01,11.02,8.014,18]docosan-7-ol

> <PUBCHEM_IUPAC_TRADITIONAL_NAME>
12-methyl-6-methylene-17-oxa-14-azahexacyclo[10.6.3.15,8.01,11.02,8.014,18]docosan-7-ol

> <PUBCHEM_MOLECULAR_FORMULA>
C22H33NO2

> <PUBCHEM_MOLECULAR_WEIGHT>
343.5

> <PUBCHEM_MONOISOTOPIC_WEIGHT>
343.251129295

> <PUBCHEM_OPENEYE_CAN_SMILES>
CC12CCCC3(C1CCC45C3CCC(C4)C(=C)C5O)C6N(C2)CCO6

> <PUBCHEM_OPENEYE_ISO_SMILES>
CC12CCCC3(C1CCC45C3CCC(C4)C(=C)C5O)C6N(C2)CCO6

> <PUBCHEM_TOTAL_CHARGE>
0

> <PUBCHEM_XLOGP3_AA>
3.6

> <RelativeEnergy>
12.3947

> <StereoisomerIndex>
7

> <TautomerIndex>
1

> <POSE_NUMBER>
2

> <LibDockScore>
100.7006

> <HotSpots>
11.21,4.87,-14.65,A,18,19
16.61,6.47,-11.46,A,30,23
9.01,2.67,-14.05,A,21,25

> <-In-Situ Starting Energy>
-14944.7868

> <-In-Situ Final Energy>
-79.7584042

> <In-Situ Gradient>
0.0008779493275

$$$$
5281955
  SciTegic09142310043D

102102  0  0  0  0            999 V2000
   11.1377    5.9747   -9.3028 O   0  0  0  1  0  0
   14.4972    4.9578   -9.5000 O   0  0  0  1  0  0
   12.9436    4.7468   -6.7101 O   0  0  0  1  0  0
   11.9151    5.3442  -12.4920 O   0  0  0  1  0  0
    9.9388    3.3895  -12.3278 O   0  0  0  1  0  0
   16.9660    4.1711  -12.0147 O   0  0  0  1  0  0
   13.8360    5.2898   -3.1364 O   0  0  0  1  0  0
   11.7139    4.2346  -15.9067 O   0  0  0  1  0  0
    7.2602    2.0869  -14.4173 O   0  0  0  1  0  0
    7.9557    1.0222  -16.2731 O   0  0  0  1  0  0
   12.1953    5.5225  -10.1206 C   0  0  1  1  0  0
   13.1406    4.8236   -9.1389 C   0  0  2  1  0  0
   12.9549    5.6011   -7.8467 C   0  0  1  1  0  0
   11.7097    4.6347  -11.2873 C   0  0  1  1  0  0
   11.6491    6.3740   -8.0437 C   0  0  0  1  0  0
   10.2212    4.2617  -11.2477 C   0  0  0  1  0  0
   14.9143    4.4356  -10.7401 C   0  0  0  1  0  0
   13.0884    5.4349   -5.4835 C   0  0  0  1  0  0
   12.2373    4.5533  -13.6183 C   0  0  0  1  0  0
   16.4298    4.5647  -10.7619 C   0  0  0  1  0  0
   13.6054    4.5567   -4.3379 C   0  0  0  1  0  0
    8.6459    3.4053  -12.8983 C   0  0  0  1  0  0
   11.6035    5.1688  -14.8639 C   0  0  0  1  0  0
    8.6107    2.4126  -14.0656 C   0  0  0  1  0  0
    3.6365   -0.7521  -18.6397 C   0  0  0  1  0  0
    3.8713    0.3164  -17.5611 C   0  0  0  1  0  0
    2.1547   -1.0952  -18.8620 C   0  0  0  1  0  0
    5.3632    0.5404  -17.2546 C   0  0  0  1  0  0
   -1.6549   -9.0241  -16.7190 C   0  0  0  1  0  0
   -1.2047   -8.5360  -18.1055 C   0  0  0  1  0  0
    1.9654   -2.5403  -19.3521 C   0  0  0  1  0  0
    5.5825    1.0654  -15.8241 C   0  0  0  1  0  0
   -1.2554  -10.4792  -16.4380 C   0  0  0  1  0  0
   -1.2888   -7.0094  -18.2187 C   0  0  0  1  0  0
    0.5564   -2.8274  -19.8910 C   0  0  0  1  0  0
    7.0641    1.3691  -15.5232 C   0  0  0  1  0  0
   -1.4730  -10.8593  -14.9680 C   0  0  0  1  0  0
   -0.9283   -6.4643  -19.6069 C   0  0  0  1  0  0
    0.3056   -4.3029  -20.0706 C   0  0  0  1  0  0
   -1.0784  -12.3080  -14.6586 C   0  0  0  1  0  0
   -0.7637   -4.9660  -19.5928 C   0  0  0  1  0  0
   -1.2715  -12.6590  -13.1791 C   0  0  0  1  0  0
   17.9261    4.2608  -11.9939 H   0  0
   14.5922    5.8884   -3.2251 H   0  0
   11.2742    4.5686  -16.6763 H   0  0
   12.7159    6.3938  -10.5188 H   0  0
   12.8712    3.7764   -8.9973 H   0  0
   13.7778    6.3152   -7.7683 H   0  0
   12.3004    3.7175  -11.2950 H   0  0
   11.8350    7.4491   -8.0507 H   0  0
   10.9333    6.1630   -7.2527 H   0  0
    9.9848    3.7636  -10.3097 H   0  0
    9.6230    5.1683  -11.3250 H   0  0
   14.4750    5.0054  -11.5590 H   0  0
   14.6144    3.3918  -10.8391 H   0  0
   12.1382    5.8908   -5.2087 H   0  0
   13.8032    6.2267   -5.6346 H   0  0
   13.3133    4.4621  -13.6881 H   0  0
   11.8823    3.5299  -13.5145 H   0  0
   16.6942    5.6064  -10.5460 H   0  0
   16.8234    3.9320   -9.9599 H   0  0
   12.8613    3.8004   -4.1208 H   0  0
   14.4936    3.9954   -4.6321 H   0  0
    7.9173    3.1093  -12.1550 H   0  0
    8.3897    4.4095  -13.2325 H   0  0
   12.0950    6.0922  -15.1773 H   0  0
   10.5513    5.3840  -14.6479 H   0  0
    9.1218    1.5070  -13.7491 H   0  0
    9.1513    2.8011  -14.9282 H   0  0
    4.0880   -0.4424  -19.5823 H   0  0
    4.1583   -1.6593  -18.3481 H   0  0
    3.4089    1.2587  -17.8567 H   0  0
    3.3602    0.0115  -16.6485 H   0  0
    1.5957   -0.9708  -17.9338 H   0  0
    1.7257   -0.3902  -19.5749 H   0  0
    5.7831    1.2323  -17.9848 H   0  0
    5.9207   -0.3836  -17.3929 H   0  0
   -2.7351   -8.9108  -16.6211 H   0  0
   -1.2248   -8.3827  -15.9500 H   0  0
   -0.1765   -8.8468  -18.2933 H   0  0
   -1.8148   -9.0075  -18.8765 H   0  0
    2.6914   -2.7615  -20.1356 H   0  0
    2.1892   -3.2215  -18.5305 H   0  0
    5.2030    0.3687  -15.0824 H   0  0
    5.0131    1.9813  -15.6965 H   0  0
   -1.8214  -11.1478  -17.0875 H   0  0
   -0.2037  -10.6233  -16.6869 H   0  0
   -2.3038   -6.6972  -17.9749 H   0  0
   -0.6305   -6.5645  -17.4709 H   0  0
    0.4171   -2.3161  -20.8438 H   0  0
   -0.1862   -2.4174  -19.2054 H   0  0
   -2.5193  -10.7035  -14.7040 H   0  0
   -0.8862  -10.1895  -14.3387 H   0  0
   -1.7014   -6.7394  -20.3248 H   0  0
   -0.0023   -6.9260  -19.9522 H   0  0
    1.0970   -4.8450  -20.5554 H   0  0
   -1.6721  -12.9861  -15.2724 H   0  0
   -0.0359  -12.4715  -14.9339 H   0  0
   -1.5477   -4.4244  -19.0956 H   0  0
   -2.3032  -12.4993  -12.8649 H   0  0
   -0.6289  -12.0484  -12.5452 H   0  0
   -1.0257  -13.7043  -12.9921 H   0  0
  1 11  1  0
  1 15  1  0
  2 12  1  0
  2 17  1  0
  3 13  1  0
  3 18  1  0
  4 14  1  0
  4 19  1  0
  5 16  1  0
  5 22  1  0
  6 20  1  0
  7 21  1  0
  8 23  1  0
  9 24  1  0
  9 36  1  0
 10 36  2  0
 11 12  1  0
 11 14  1  0
 12 13  1  0
 13 15  1  0
 14 16  1  0
 17 20  1  0
 18 21  1  0
 19 23  1  0
 22 24  1  0
 25 26  1  0
 25 27  1  0
 26 28  1  0
 27 31  1  0
 28 32  1  0
 29 30  1  0
 29 33  1  0
 30 34  1  0
 31 35  1  0
 32 36  1  0
 33 37  1  0
 34 38  1  0
 35 39  1  0
 37 40  1  0
 38 41  1  0
 39 41  2  0
 40 42  1  0
  6 43  1  0
  7 44  1  0
  8 45  1  0
 11 46  1  0
 12 47  1  0
 13 48  1  0
 14 49  1  0
 15 50  1  0
 15 51  1  0
 16 52  1  0
 16 53  1  0
 17 54  1  0
 17 55  1  0
 18 56  1  0
 18 57  1  0
 19 58  1  0
 19 59  1  0
 20 60  1  0
 20 61  1  0
 21 62  1  0
 21 63  1  0
 22 64  1  0
 22 65  1  0
 23 66  1  0
 23 67  1  0
 24 68  1  0
 24 69  1  0
 25 70  1  0
 25 71  1  0
 26 72  1  0
 26 73  1  0
 27 74  1  0
 27 75  1  0
 28 76  1  0
 28 77  1  0
 29 78  1  0
 29 79  1  0
 30 80  1  0
 30 81  1  0
 31 82  1  0
 31 83  1  0
 32 84  1  0
 32 85  1  0
 33 86  1  0
 33 87  1  0
 34 88  1  0
 34 89  1  0
 35 90  1  0
 35 91  1  0
 37 92  1  0
 37 93  1  0
 38 94  1  0
 38 95  1  0
 39 96  1  0
 40 97  1  0
 40 98  1  0
 41 99  1  0
 42100  1  0
 42101  1  0
 42102  1  0
M  END
> <Name>
5281955

> <Binding Energy>
-91.7748

> <Ligand Energy>
61.5626

> <Protein Energy>
-7801.1566

> <Complex Energy>
-7831.3688

> <Complex Entropy>
-31.4941

> <Protein Entropy>
-31.4717

> <Ligand Entropy>
-22.1895

> <Entropic Energy>
22.167

> <AbsoluteEnergy>
32.8893

> <ConfNumber>
1

> <IonizationIndex>
1

> <MOL_NUMBER>
1151

> <NumberOfIonizations>
1

> <NumberOfStereoisomers>
16

> <NumberOfTautomers>
1

> <PUBCHEM_ATOM_DEF_STEREO_COUNT>
0

> <PUBCHEM_ATOM_UDEF_STEREO_COUNT>
4

> <PUBCHEM_BONDANNOTATIONS>
11  1  3
14  16  3
12  2  3
13  3  3

> <PUBCHEM_BOND_DEF_STEREO_COUNT>
1

> <PUBCHEM_BOND_UDEF_STEREO_COUNT>
0

> <PUBCHEM_CACTVS_COMPLEXITY>
632

> <PUBCHEM_CACTVS_HBOND_ACCEPTOR>
10

> <PUBCHEM_CACTVS_HBOND_DONOR>
3

> <PUBCHEM_CACTVS_ROTATABLE_BOND>
31

> <PUBCHEM_CACTVS_SUBSKEYS>
AAADcfB8PAAAAAAAAAAAAAAAAAAAASAAAAAAAAAAAAAAAAAAAAAAGgAACAAACBSggAICCAAABgCIACDSCAAAAAAgAAAICAEAAAgBEBIAAQACAAAFgAALAAPI6KyAAAAAAAAAAAAAAAAAAAAAAAAAAAAAAA==

> <PUBCHEM_CACTVS_TAUTO_COUNT>
1

> <PUBCHEM_CACTVS_TPSA>
133

> <PUBCHEM_COMPONENT_COUNT>
1

> <PUBCHEM_COMPOUND_CANONICALIZED>
1

> <PUBCHEM_COMPOUND_CID>
5281955

> <PUBCHEM_COORDINATE_TYPE>
1
5
255

> <PUBCHEM_EXACT_MASS>
604.41864811

> <PUBCHEM_HEAVY_ATOM_COUNT>
42

> <PUBCHEM_ISOTOPIC_ATOM_COUNT>
0

> <PUBCHEM_IUPAC_CAS_NAME>
(E)-9-octadecenoic acid 2-[2-[3,4-bis(2-hydroxyethoxy)-2-oxolanyl]-2-(2-hydroxyethoxy)ethoxy]ethyl ester

> <PUBCHEM_IUPAC_INCHI>
InChI=1S/C32H60O10/c1-2-3-4-5-6-7-8-9-10-11-12-13-14-15-16-17-30(36)40-25-24-37-26-28(38-21-18-33)32-31(41-23-20-35)29(27-42-32)39-22-19-34/h9-10,28-29,31-35H,2-8,11-27H2,1H3/b10-9+

> <PUBCHEM_IUPAC_INCHIKEY>
HDTIFOGXOGLRCB-MDZDMXLPSA-N

> <PUBCHEM_IUPAC_NAME>
2-[2-[3,4-bis(2-hydroxyethoxy)oxolan-2-yl]-2-(2-hydroxyethoxy)ethoxy]ethyl (E)-octadec-9-enoate

> <PUBCHEM_IUPAC_NAME_MARKUP>
2-[2-[3,4-bis(2-hydroxyethoxy)oxolan-2-yl]-2-(2-hydroxyethoxy)ethoxy]ethyl (<I>E</I>)-octadec-9-enoate

> <PUBCHEM_IUPAC_OPENEYE_NAME>
2-[2-[3,4-bis(2-hydroxyethoxy)tetrahydrofuran-2-yl]-2-(2-hydroxyethoxy)ethoxy]ethyl (E)-octadec-9-enoate

> <PUBCHEM_IUPAC_SYSTEMATIC_NAME>
2-[2-[3,4-bis(2-hydroxyethyloxy)oxolan-2-yl]-2-(2-hydroxyethyloxy)ethoxy]ethyl (E)-octadec-9-enoate

> <PUBCHEM_IUPAC_TRADITIONAL_NAME>
(E)-octadec-9-enoic acid 2-[2-[3,4-bis(2-hydroxyethoxy)tetrahydrofuran-2-yl]-2-(2-hydroxyethoxy)ethoxy]ethyl ester

> <PUBCHEM_MOLECULAR_FORMULA>
C32H60O10

> <PUBCHEM_MOLECULAR_WEIGHT>
604.8

> <PUBCHEM_MONOISOTOPIC_WEIGHT>
604.41864811

> <PUBCHEM_OPENEYE_CAN_SMILES>
CCCCCCCCC=CCCCCCCCC(=O)OCCOCC(C1C(C(CO1)OCCO)OCCO)OCCO

> <PUBCHEM_OPENEYE_ISO_SMILES>
CCCCCCCC/C=C/CCCCCCCC(=O)OCCOCC(C1C(C(CO1)OCCO)OCCO)OCCO

> <PUBCHEM_TOTAL_CHARGE>
0

> <PUBCHEM_XLOGP3_AA>
4.8

> <RelativeEnergy>
0

> <StereoisomerIndex>
3

> <TautomerIndex>
1

> <POSE_NUMBER>
1

> <LibDockScore>
154.8351

> <HotSpots>
11.21,4.87,-14.65,A,18,19
7.61,3.27,-13.26,A,25,22
7.21,2.27,-14.26,A,20,24

> <-In-Situ Starting Energy>
-6745.9933

> <-In-Situ Final Energy>
12.9035565

> <In-Situ Gradient>
0.0009644601264

$$$$
566062
  SciTegic09142310043D

 38 41  0  0  0  0            999 V2000
    7.1242    1.1708   -2.2841 O   0  0  0  1  0  0
    8.6604    1.4585    1.9721 O   0  0  0  1  0  0
    9.4088    3.3289    2.9777 O   0  0  0  1  0  0
    6.7483    0.7059   -0.9888 C   0  0  2  1  0  0
    6.7728    2.1461   -1.2815 C   0  0  2  1  0  0
    7.6323    0.2277    0.1548 C   0  0  1  1  0  0
    7.4329    0.8963    1.5414 C   0  0  2  1  0  0
    5.4497    2.5920   -0.6836 C   0  0  0  1  0  0
    5.5952   -0.2357   -1.2538 C   0  0  0  1  0  0
    6.3851    2.0162    1.7433 C   0  0  2  1  0  0
    5.1985    2.0668    0.7681 C   0  0  0  1  0  0
    7.2030   -1.2062    0.2036 C   0  0  0  1  0  0
    7.9896    3.0351   -1.1305 C   0  0  0  1  0  0
    6.1251   -1.4355   -0.5361 C   0  0  0  1  0  0
    7.1937    3.2912    1.9812 C   0  0  2  1  0  0
    8.5579    2.7104    2.3593 C   0  0  0  1  0  0
    7.8764   -2.2189    1.0717 C   0  0  0  1  0  0
    6.6553    4.2252    3.0622 C   0  0  0  1  0  0
    8.6591    0.2942   -0.1605 H   0  0
    7.1936    0.1189    2.2676 H   0  0
    4.6218    2.3199   -1.3395 H   0  0
    5.4915    3.6675   -0.7232 H   0  0
    5.5000   -0.3489   -2.3284 H   0  0
    4.6094    0.0376   -0.8982 H   0  0
    5.9046    1.7771    2.6915 H   0  0
    4.3465    2.5384    1.2393 H   0  0
    4.8603    1.0455    0.7542 H   0  0
    8.5939    3.0100   -2.0367 H   0  0
    8.6366    2.7422   -0.3084 H   0  0
    7.6607    4.0630   -0.9961 H   0  0
    5.7112   -2.4170   -0.6401 H   0  0
    7.3093    3.8643    1.0724 H   0  0
    8.1184   -1.7801    2.0277 H   0  0
    8.7803   -2.5955    0.6017 H   0  0
    7.2280   -3.0800    1.2263 H   0  0
    6.2944    3.7061    3.9358 H   0  0
    5.8210    4.7723    2.6563 H   0  0
    7.3930    4.9499    3.4071 H   0  0
  1  4  1  0
  1  5  1  0
  2  7  1  0
  2 16  1  0
  3 16  2  0
  4  5  1  0
  4  6  1  0
  4  9  1  0
  5  8  1  0
  5 13  1  0
  6  7  1  0
  6 12  1  0
  7 10  1  0
  8 11  1  0
  9 14  1  0
 10 11  1  0
 10 15  1  0
 12 14  2  0
 12 17  1  0
 15 16  1  0
 15 18  1  0
  6 19  1  0
  7 20  1  0
  8 21  1  0
  8 22  1  0
  9 23  1  0
  9 24  1  0
 10 25  1  0
 11 26  1  0
 11 27  1  0
 13 28  1  0
 13 29  1  0
 13 30  1  0
 14 31  1  0
 15 32  1  0
 17 33  1  0
 17 34  1  0
 17 35  1  0
 18 36  1  0
 18 37  1  0
 18 38  1  0
M  END
> <Name>
566062

> <Binding Energy>
-13.7399

> <Ligand Energy>
76.2608

> <Protein Energy>
-7801.1566

> <Complex Energy>
-7738.6357

> <Complex Entropy>
-31.4783

> <Protein Entropy>
-31.4717

> <Ligand Entropy>
-18.6412

> <Entropic Energy>
18.6346

> <AbsoluteEnergy>
64.6315

> <ConfNumber>
2

> <IonizationIndex>
1

> <MOL_NUMBER>
1209

> <NumberOfIonizations>
1

> <NumberOfStereoisomers>
64

> <NumberOfTautomers>
1

> <PUBCHEM_ATOM_DEF_STEREO_COUNT>
0

> <PUBCHEM_ATOM_UDEF_STEREO_COUNT>
6

> <PUBCHEM_BONDANNOTATIONS>
10  11  3
15  18  3
7  2  3
4  9  3
5  13  3
6  12  3

> <PUBCHEM_BOND_DEF_STEREO_COUNT>
0

> <PUBCHEM_BOND_UDEF_STEREO_COUNT>
0

> <PUBCHEM_CACTVS_COMPLEXITY>
468

> <PUBCHEM_CACTVS_HBOND_ACCEPTOR>
3

> <PUBCHEM_CACTVS_HBOND_DONOR>
0

> <PUBCHEM_CACTVS_ROTATABLE_BOND>
0

> <PUBCHEM_CACTVS_SUBSKEYS>
AAADceBwMAAAAAAAAAAAAAAAEgAAASIAAAAAAAAABgASAACQAAAAGgAAAAAADVSggAICCAAABACIAiDSCAAAAAAgAAAACAEAAAgAABIAAQACAAAFwAAIAAPK6PyOgAAAAAAAAAAAAAAAAAAAAAAAAAAAAA==

> <PUBCHEM_CACTVS_TAUTO_COUNT>
-1

> <PUBCHEM_CACTVS_TPSA>
38.8

> <PUBCHEM_COMPONENT_COUNT>
1

> <PUBCHEM_COMPOUND_CANONICALIZED>
1

> <PUBCHEM_COMPOUND_CID>
566062

> <PUBCHEM_COORDINATE_TYPE>
1
5
255

> <PUBCHEM_EXACT_MASS>
248.1412445

> <PUBCHEM_HEAVY_ATOM_COUNT>
18

> <PUBCHEM_ISOTOPIC_ATOM_COUNT>
0

> <PUBCHEM_IUPAC_CAS_NAME>
3,7,12-trimethyl-2,9-dioxatetracyclo[9.3.0.01,3.06,10]tetradec-12-en-8-one

> <PUBCHEM_IUPAC_INCHI>
InChI=1S/C15H20O3/c1-8-4-7-15-11(8)12-10(9(2)13(16)17-12)5-6-14(15,3)18-15/h4,9-12H,5-7H2,1-3H3

> <PUBCHEM_IUPAC_INCHIKEY>
CBRKCJOSZHRKFH-UHFFFAOYSA-N

> <PUBCHEM_IUPAC_NAME>
3,7,12-trimethyl-2,9-dioxatetracyclo[9.3.0.01,3.06,10]tetradec-12-en-8-one

> <PUBCHEM_IUPAC_NAME_MARKUP>
3,7,12-trimethyl-2,9-dioxatetracyclo[9.3.0.0<SUP>1,3</SUP>.0<SUP>6,10</SUP>]tetradec-12-en-8-one

> <PUBCHEM_IUPAC_OPENEYE_NAME>
3,7,12-trimethyl-2,9-dioxatetracyclo[9.3.0.01,3.06,10]tetradec-12-en-8-one

> <PUBCHEM_IUPAC_SYSTEMATIC_NAME>
3,7,12-trimethyl-2,9-dioxatetracyclo[9.3.0.01,3.06,10]tetradec-12-en-8-one

> <PUBCHEM_IUPAC_TRADITIONAL_NAME>
3,7,12-trimethyl-2,9-dioxatetracyclo[9.3.0.01,3.06,10]tetradec-12-en-8-one

> <PUBCHEM_MOLECULAR_FORMULA>
C15H20O3

> <PUBCHEM_MOLECULAR_WEIGHT>
248.32

> <PUBCHEM_MONOISOTOPIC_WEIGHT>
248.1412445

> <PUBCHEM_OPENEYE_CAN_SMILES>
CC1C2CCC3(C4(O3)CC=C(C4C2OC1=O)C)C

> <PUBCHEM_OPENEYE_ISO_SMILES>
CC1C2CCC3(C4(O3)CC=C(C4C2OC1=O)C)C

> <PUBCHEM_TOTAL_CHARGE>
0

> <PUBCHEM_XLOGP3_AA>
1.8

> <RelativeEnergy>
4.2472

> <StereoisomerIndex>
60

> <TautomerIndex>
1

> <POSE_NUMBER>
1

> <LibDockScore>
90.8218

> <HotSpots>
7.61,2.87,-1.05,A,58,13
7.61,-2.13,0.94,A,72,17
6.61,4.27,3.15,A,86,18

> <-In-Situ Starting Energy>
-801.848334

> <-In-Situ Final Energy>
-61.2031643

> <In-Situ Gradient>
0.0007991741047

$$$$
65238
  SciTegic09142310043D

 98103  0  0  0  0            999 V2000
   17.6752    2.5634  -13.0674 O   0  0  0  1  0  0
   18.3423   -0.9173  -14.0229 O   0  0  0  1  0  0
   20.5500    1.7742  -13.0356 O   0  0  0  1  0  0
   18.7303    0.9254  -10.8623 O   0  0  0  1  0  0
   16.0223    0.9138  -13.2795 O   0  0  0  1  0  0
   18.0844    1.7987  -16.6425 O   0  0  0  1  0  0
   20.4181   -1.4519  -14.6750 O   0  0  0  1  0  0
   22.1006   -0.1066  -13.2366 O   0  0  0  1  0  0
   17.9633    2.9291   -9.9889 O   0  0  0  1  0  0
   14.2807    2.1777  -12.6441 O   0  0  0  1  0  0
   16.3452    0.5732  -17.3310 O   0  0  0  1  0  0
   15.3642   -3.1409  -17.4197 O   0  0  0  1  0  0
   19.5696   -5.3597  -17.7899 O   0  0  0  1  0  0
   22.0385    4.0955   -8.8905 O   0  0  0  1  0  0
   24.8913    0.1375   -9.1110 O   0  0  0  1  0  0
   15.2254    1.7008   -5.9350 O   0  0  0  1  0  0
   17.2695   -2.5315   -7.3881 O   0  0  0  1  0  0
   16.7872   -5.1212  -18.4136 O   0  0  0  1  0  0
   24.0513    2.6687   -8.0770 O   0  0  0  1  0  0
   10.6177   -1.4988  -13.5524 O   0  0  0  1  0  0
   14.3751   -3.5809  -14.5637 O   0  0  0  1  0  0
   15.9071   -0.9505   -5.5957 O   0  0  0  1  0  0
   11.9471   -3.4015  -14.1752 O   0  5  0  1  0  0
   20.5736    3.0923  -20.8281 O   0  0  0  1  0  0
   17.0826    0.2808  -22.3754 O   0  0  0  1  0  0
   19.3371    1.9404  -22.7703 O   0  0  0  1  0  0
   18.9198   -0.0085  -13.0698 C   0  0  1  1  0  0
   19.5297    1.1918  -13.8333 C   0  0  1  1  0  0
   17.9464    0.4437  -11.9477 C   0  0  2  1  0  0
   18.4341    2.2126  -14.2096 C   0  0  1  1  0  0
   16.9598    1.5305  -12.4189 C   0  0  1  1  0  0
   17.4936    1.7376  -15.3416 C   0  0  0  1  0  0
   19.2057   -1.5948  -14.7828 C   0  0  0  1  0  0
   21.5975    0.9960  -12.5804 C   0  0  0  1  0  0
   18.0460    1.5706   -9.8769 C   0  0  0  1  0  0
   14.7365    1.1449  -13.1150 C   0  0  0  1  0  0
   18.5615   -2.5100  -15.7239 C   0  0  0  1  0  0
   22.1656    1.3239  -11.4001 C   0  0  0  1  0  0
   17.3692    1.1900  -17.5876 C   0  0  0  1  0  0
   17.4488    0.9151   -8.8593 C   0  0  0  1  0  0
   13.9912   -0.0393  -13.5262 C   0  0  0  1  0  0
   17.9226    1.3480  -18.9326 C   0  0  0  1  0  0
   19.3267   -3.5294  -16.2838 C   0  0  0  1  0  0
   17.2384   -2.3490  -16.1187 C   0  0  0  1  0  0
   23.2483    0.5165  -10.7936 C   0  0  0  1  0  0
   21.7359    2.5115  -10.6455 C   0  0  0  1  0  0
   17.6304   -0.5311   -8.6445 C   0  0  0  1  0  0
   16.5769    1.6269   -7.9021 C   0  0  0  1  0  0
   14.6665   -1.2049  -13.9177 C   0  0  0  1  0  0
   12.6009   -0.0388  -13.4158 C   0  0  0  1  0  0
   16.6686   -3.2587  -16.9935 C   0  0  0  1  0  0
   18.7654   -4.4125  -17.1925 C   0  0  0  1  0  0
   22.3631    2.9357   -9.5332 C   0  0  0  1  0  0
   23.8797    0.8855   -9.6553 C   0  0  0  1  0  0
   16.0175    1.0226   -6.8298 C   0  0  0  1  0  0
   17.0588   -1.1889   -7.6106 C   0  0  0  1  0  0
   17.2712    0.7096  -19.9892 C   0  0  0  1  0  0
   19.0450    2.1367  -19.1702 C   0  0  0  1  0  0
   17.4214   -4.2896  -17.5205 C   0  0  0  1  0  0
   23.4809    2.1589   -8.9903 C   0  0  0  1  0  0
   11.9364   -1.2212  -13.6791 C   0  0  0  1  0  0
   13.9314   -2.3404  -14.2096 C   0  0  0  1  0  0
   16.2727   -0.4239   -6.6034 C   0  0  0  1  0  0
   12.5878   -2.3488  -14.0504 C   0  0  0  1  0  0
   19.4869    2.3077  -20.4762 C   0  0  0  1  0  0
   17.7151    0.8817  -21.2963 C   0  0  0  1  0  0
   18.8267    1.6883  -21.5191 C   0  0  0  1  0  0
   21.6789   -0.4119  -14.0332 H   0  0
   18.4143    3.2432  -10.7739 H   0  0
   14.7661   -3.4479  -16.7248 H   0  0
   19.1593   -6.2262  -17.7407 H   0  0
   22.7348    4.2612   -8.2492 H   0  0
   25.0262   -0.7036   -9.5190 H   0  0
   15.1562    2.6236   -6.1192 H   0  0
   17.9553   -2.9250   -7.9130 H   0  0
   15.9249   -4.7252  -18.5336 H   0  0
   10.6653   -2.4245  -13.8760 H   0  0
   13.4820   -4.0036  -14.5818 H   0  0
   20.9548    3.5267  -20.0751 H   0  0
   16.2189   -0.0705  -22.1688 H   0  0
   20.0792    2.5171  -22.6003 H   0  0
   19.6864   -0.5678  -12.5335 H   0  0
   19.9593    0.9104  -14.7917 H   0  0
   17.3782   -0.4197  -11.6023 H   0  0
   18.9096    3.1271  -14.5525 H   0  0
   16.4116    1.9657  -11.5817 H   0  0
   17.1669    0.7159  -15.1694 H   0  0
   16.6036    2.3703  -15.3488 H   0  0
   20.3705   -3.6412  -16.0263 H   0  0
   16.6541   -1.5080  -15.7884 H   0  0
   23.4975   -0.3803  -11.3303 H   0  0
   20.9044    3.0354  -11.0505 H   0  0
   18.2832   -1.0032   -9.3516 H   0  0
   16.4213    2.6617   -8.1379 H   0  0
   15.7404   -1.2640  -13.9450 H   0  0
   12.0543    0.8338  -13.0897 H   0  0
   16.4176    0.0833  -19.7637 H   0  0
   19.5440    2.6067  -18.3368 H   0  0
  1 30  1  0
  1 31  1  0
  2 27  1  0
  2 33  1  0
  3 28  1  0
  3 34  1  0
  4 29  1  0
  4 35  1  0
  5 31  1  0
  5 36  1  0
  6 32  1  0
  6 39  1  0
  7 33  2  0
  8 34  1  0
  9 35  1  0
 10 36  2  0
 11 39  2  0
 12 51  1  0
 13 52  1  0
 14 53  1  0
 15 54  1  0
 16 55  1  0
 17 56  1  0
 18 59  1  0
 19 60  2  0
 20 61  1  0
 21 62  1  0
 22 63  2  0
 23 64  1  0
 24 65  1  0
 25 66  1  0
 26 67  1  0
 27 28  1  0
 27 29  1  0
 28 30  1  0
 29 31  1  0
 30 32  1  0
 33 37  1  0
 34 38  2  0
 35 40  2  0
 36 41  1  0
 37 43  2  0
 37 44  1  0
 38 45  1  0
 38 46  1  0
 39 42  1  0
 40 47  1  0
 40 48  1  0
 41 49  2  0
 41 50  1  0
 42 57  2  0
 42 58  1  0
 43 52  1  0
 44 51  2  0
 45 54  2  0
 46 53  2  0
 47 56  2  0
 48 55  2  0
 49 62  1  0
 50 61  2  0
 51 59  1  0
 52 59  2  0
 53 60  1  0
 54 60  1  0
 55 63  1  0
 56 63  1  0
 57 66  1  0
 58 65  2  0
 61 64  1  0
 62 64  2  0
 65 67  1  0
 66 67  2  0
  8 68  1  0
  9 69  1  0
 12 70  1  0
 13 71  1  0
 14 72  1  0
 15 73  1  0
 16 74  1  0
 17 75  1  0
 18 76  1  0
 20 77  1  0
 21 78  1  0
 24 79  1  0
 25 80  1  0
 26 81  1  0
 27 82  1  0
 28 83  1  0
 29 84  1  0
 30 85  1  0
 31 86  1  0
 32 87  1  0
 32 88  1  0
 43 89  1  0
 44 90  1  0
 45 91  1  0
 46 92  1  0
 47 93  1  0
 48 94  1  0
 49 95  1  0
 50 96  1  0
 57 97  1  0
 58 98  1  0
M  CHG  1  23  -1
M  END
> <Name>
65238

> <Binding Energy>
-127.1919

> <Ligand Energy>
-163.5783

> <Protein Energy>
-7801.1566

> <Complex Energy>
-8091.9269

> <Complex Entropy>
-31.5126

> <Protein Entropy>
-31.4717

> <Ligand Entropy>
-22.3428

> <Entropic Energy>
22.3019

> <AbsoluteEnergy>
91.2745

> <ConfNumber>
99

> <Ionization pH>
7.04_PPPDPPPPPPPPPPP

> <IonizationIndex>
2

> <MOL_NUMBER>
1228

> <NumberOfIonizations>
17

> <NumberOfStereoisomers>
1

> <NumberOfTautomers>
10

> <PUBCHEM_ATOM_DEF_STEREO_COUNT>
5

> <PUBCHEM_ATOM_UDEF_STEREO_COUNT>
0

> <PUBCHEM_BONDANNOTATIONS>
27  2  5
28  3  6
30  32  5
37  43  8
37  44  8
38  45  8
38  46  8
29  4  6
40  47  8
40  48  8
41  49  8
41  50  8
42  57  8
42  58  8
43  52  8
44  51  8
45  54  8
46  53  8
47  56  8
48  55  8
49  62  8
31  5  5
50  61  8
51  59  8
52  59  8
53  60  8
54  60  8
55  63  8
56  63  8
57  66  8
58  65  8
61  64  8
62  64  8
65  67  8
66  67  8

> <PUBCHEM_BOND_DEF_STEREO_COUNT>
0

> <PUBCHEM_BOND_UDEF_STEREO_COUNT>
0

> <PUBCHEM_CACTVS_COMPLEXITY>
1680

> <PUBCHEM_CACTVS_HBOND_ACCEPTOR>
26

> <PUBCHEM_CACTVS_HBOND_DONOR>
15

> <PUBCHEM_CACTVS_ROTATABLE_BOND>
16

> <PUBCHEM_CACTVS_SUBSKEYS>
AAADcfB8PgAAAAAAAAAAAAAAAAAAAAAAAAA0YMGDAAAAAAABVAAAGgAACAAADBSwmAMwDoAABgCIAiDSCAACAAAkIAAAiAEGiMgZJzKCNRqicQElwBUPuYfK7DzOIAABCAAAQABAAAIQAACAAAAAAAAAAA==

> <PUBCHEM_CACTVS_TAUTO_COUNT>
1001

> <PUBCHEM_CACTVS_TPSA>
444

> <PUBCHEM_COMPONENT_COUNT>
1

> <PUBCHEM_COMPOUND_CANONICALIZED>
1

> <PUBCHEM_COMPOUND_CID>
65238

> <PUBCHEM_COORDINATE_TYPE>
1
5
255

> <PUBCHEM_EXACT_MASS>
940.11818112

> <PUBCHEM_HEAVY_ATOM_COUNT>
67

> <PUBCHEM_ISOTOPIC_ATOM_COUNT>
0

> <PUBCHEM_IUPAC_CAS_NAME>
3,4,5-trihydroxybenzoic acid [(2R,3R,4S,5R,6S)-3,4,5,6-tetrakis[oxo-(3,4,5-trihydroxyphenyl)methoxy]-2-oxanyl]methyl ester

> <PUBCHEM_IUPAC_INCHI>
InChI=1S/C41H32O26/c42-17-1-12(2-18(43)28(17)52)36(57)62-11-27-33(64-37(58)13-3-19(44)29(53)20(45)4-13)34(65-38(59)14-5-21(46)30(54)22(47)6-14)35(66-39(60)15-7-23(48)31(55)24(49)8-15)41(63-27)67-40(61
)16-9-25(50)32(56)26(51)10-16/h1-10,27,33-35,41-56H,11H2/t27-,33-,34+,35-,41+/m1/s1

> <PUBCHEM_IUPAC_INCHIKEY>
QJYNZEYHSMRWBK-NIKIMHBISA-N

> <PUBCHEM_IUPAC_NAME>
[(2R,3R,4S,5R,6S)-3,4,5,6-tetrakis[(3,4,5-trihydroxybenzoyl)oxy]oxan-2-yl]methyl 3,4,5-trihydroxybenzoate

> <PUBCHEM_IUPAC_NAME_MARKUP>
[(2<I>R</I>,3<I>R</I>,4<I>S</I>,5<I>R</I>,6<I>S</I>)-3,4,5,6-tetrakis[(3,4,5-trihydroxybenzoyl)oxy]oxan-2-yl]methyl 3,4,5-trihydroxybenzoate

> <PUBCHEM_IUPAC_OPENEYE_NAME>
[(2R,3R,4S,5R,6S)-3,4,5,6-tetrakis[(3,4,5-trihydroxybenzoyl)oxy]tetrahydropyran-2-yl]methyl 3,4,5-trihydroxybenzoate

> <PUBCHEM_IUPAC_SYSTEMATIC_NAME>
[(2R,3R,4S,5R,6S)-3,4,5,6-tetrakis[[3,4,5-tris(oxidanyl)phenyl]carbonyloxy]oxan-2-yl]methyl 3,4,5-tris(oxidanyl)benzoate

> <PUBCHEM_IUPAC_TRADITIONAL_NAME>
3,4,5-trihydroxybenzoic acid [(2R,3R,4S,5R,6S)-3,4,5,6-tetragalloyloxytetrahydropyran-2-yl]methyl ester

> <PUBCHEM_MOLECULAR_FORMULA>
C41H32O26

> <PUBCHEM_MOLECULAR_WEIGHT>
940.7

> <PUBCHEM_MONOISOTOPIC_WEIGHT>
940.11818112

> <PUBCHEM_OPENEYE_CAN_SMILES>
C1=C(C=C(C(=C1O)O)O)C(=O)OCC2C(C(C(C(O2)OC(=O)C3=CC(=C(C(=C3)O)O)O)OC(=O)C4=CC(=C(C(=C4)O)O)O)OC(=O)C5=CC(=C(C(=C5)O)O)O)OC(=O)C6=CC(=C(C(=C6)O)O)O

> <PUBCHEM_OPENEYE_ISO_SMILES>
C1=C(C=C(C(=C1O)O)O)C(=O)OC[C@@H]2[C@H]([C@@H]([C@H]([C@@H](O2)OC(=O)C3=CC(=C(C(=C3)O)O)O)OC(=O)C4=CC(=C(C(=C4)O)O)O)OC(=O)C5=CC(=C(C(=C5)O)O)O)OC(=O)C6=CC(=C(C(=C6)O)O)O

> <PUBCHEM_TOTAL_CHARGE>
0

> <PUBCHEM_XLOGP3>
3.6

> <RelativeEnergy>
13.8594

> <StereoisomerIndex>
1

> <TautomerIndex>
6

> <POSE_NUMBER>
1

> <LibDockScore>
149.8432

> <HotSpots>
21.81,4.27,-8.86,P,37,14
11.41,-3.13,-14.46,P,20,20
16.81,-2.53,-6.66,P,47,22

> <-In-Situ Starting Energy>
-556.366768

> <-In-Situ Final Energy>
145.841696

> <In-Situ Gradient>
0.000973847439

$$$$
9832662
  SciTegic09142310043D

136142  0  0  0  0            999 V2000
   24.4063   -1.3733  -19.0468 O   0  0  0  1  0  0
   24.5907    2.7341  -19.2279 O   0  0  0  1  0  0
   21.8948   -0.4899  -11.2720 O   0  0  0  1  0  0
   28.2135    1.9658  -20.4496 O   0  0  0  1  0  0
   22.3941    2.8394  -19.6342 O   0  0  0  1  0  0
   21.2689    0.8266   -9.5120 O   0  0  0  1  0  0
   17.6046   -0.6928   -9.0790 O   0  0  0  1  0  0
   18.2010    1.9258   -9.9633 O   0  0  0  1  0  0
   16.1662    1.0568  -10.7124 O   0  0  0  1  0  0
   14.1558    2.7560  -11.4788 O   0  0  0  1  0  0
   15.6291    5.1119  -11.4715 O   0  0  0  1  0  0
   12.8342    3.3843  -13.2208 O   0  0  0  1  0  0
   12.0226    1.1558  -10.4903 O   0  0  0  1  0  0
    9.6224    2.8628  -12.1707 O   0  0  0  1  0  0
   11.7740    0.6747  -14.1859 O   0  0  0  1  0  0
   25.5367   -0.8021  -18.4070 C   0  0  1  1  0  0
   25.7694    0.6563  -18.8465 C   0  0  2  1  0  0
   25.1905   -0.8746  -16.9058 C   0  0  1  1  0  0
   23.9768    0.0311  -16.5823 C   0  0  1  1  0  0
   24.4299    1.3936  -18.7566 C   0  0  1  1  0  0
   23.7548    0.1293  -15.0442 C   0  0  2  1  0  0
   26.3389    0.4880  -20.2706 C   0  0  2  1  0  0
   23.9652    1.4191  -17.2912 C   0  0  0  1  0  0
   26.8234   -1.5068  -18.8612 C   0  0  0  1  0  0
   27.2272   -0.7780  -20.1640 C   0  0  0  1  0  0
   24.8797   -2.3067  -16.4312 C   0  0  0  1  0  0
   26.8195    1.3703  -17.9544 C   0  0  0  1  0  0
   23.8750   -1.2301  -14.3780 C   0  0  0  1  0  0
   22.3400    0.6742  -14.8206 C   0  0  0  1  0  0
   24.2638   -2.3285  -15.0548 C   0  0  0  1  0  0
   24.7900    1.0675  -14.3868 C   0  0  0  1  0  0
   23.3472   -1.2990  -12.9567 C   0  0  0  1  0  0
   27.0994    1.7260  -20.8049 C   0  0  0  1  0  0
   21.9430    0.7651  -13.3555 C   0  0  0  1  0  0
   21.9971   -0.6097  -12.6804 C   0  0  2  1  0  0
   26.3967    2.6231  -21.8261 C   0  0  0  1  0  0
   23.4997    3.3648  -19.6453 C   0  0  0  1  0  0
   20.8123    0.2250  -10.7032 C   0  0  2  1  0  0
   23.5790    4.7562  -20.1661 C   0  0  0  1  0  0
   19.6282   -0.6796  -10.3586 C   0  0  0  1  0  0
   18.9345   -0.2106   -9.0737 C   0  0  1  1  0  0
   22.3298    5.3069  -20.8116 C   0  0  0  1  0  0
   20.4103    1.8495   -9.0514 C   0  0  1  1  0  0
   24.7534    5.4201  -20.0951 C   0  0  0  1  0  0
   18.9651    1.3217   -8.9363 C   0  0  1  1  0  0
   20.9371    2.4011   -7.7292 C   0  0  0  1  0  0
   25.0408    6.8326  -20.5394 C   0  0  0  1  0  0
   16.7967    1.9386   -9.7954 C   0  0  2  1  0  0
   16.9372   -0.8614   -7.8458 C   0  0  0  1  0  0
   16.2984    3.3794   -9.9326 C   0  0  0  1  0  0
   16.2396    3.8388  -11.3835 C   0  0  1  1  0  0
   16.0660    1.4411  -12.0708 C   0  0  1  1  0  0
   15.4040    2.8253  -12.1413 C   0  0  1  1  0  0
   17.4061    1.3363  -12.8150 C   0  0  0  1  0  0
   13.0914    2.3599  -12.2954 C   0  0  2  1  0  0
   11.8212    2.1735  -11.4567 C   0  0  1  1  0  0
   10.6098    1.8648  -12.3651 C   0  0  2  1  0  0
   16.4838    6.2078  -11.2180 C   0  0  0  1  0  0
   11.0227    1.8356  -13.8587 C   0  0  1  1  0  0
   11.9156    3.0531  -14.2366 C   0  0  1  1  0  0
   11.1307    4.3278  -14.5602 C   0  0  0  1  0  0
    8.3464    2.6213  -12.7350 C   0  0  0  1  0  0
   24.5994   -1.6390  -19.9369 H   0  0
   12.8477    1.3262  -10.0387 H   0  0
   11.3227   -0.1234  -13.9339 H   0  0
   26.0546   -0.5472  -16.3326 H   0  0
   23.1192   -0.4988  -17.0024 H   0  0
   23.6876    0.8737  -19.3675 H   0  0
   25.5255    0.3048  -20.9720 H   0  0
   22.9563    1.8281  -17.2729 H   0  0
   24.5768    2.1435  -16.7609 H   0  0
   26.7087   -2.5843  -18.9884 H   0  0
   27.6014   -1.3677  -18.1099 H   0  0
   28.2894   -0.5307  -20.1238 H   0  0
   27.0884   -1.4154  -21.0377 H   0  0
   25.7903   -2.9057  -16.4366 H   0  0
   24.1853   -2.7901  -17.1184 H   0  0
   27.8015    0.9075  -18.0439 H   0  0
   26.5737    1.3911  -16.8962 H   0  0
   26.9182    2.4110  -18.2521 H   0  0
   22.2783    1.6657  -15.2472 H   0  0
   21.6118    0.0586  -15.3507 H   0  0
   24.2257   -3.2955  -14.5882 H   0  0
   24.6201    2.1093  -14.6510 H   0  0
   25.8116    0.8100  -14.6611 H   0  0
   24.7393    1.0138  -13.3018 H   0  0
   23.2612   -2.3410  -12.6481 H   0  0
   24.0964   -0.8666  -12.2941 H   0  0
   20.9349    1.1756  -13.3277 H   0  0
   22.5831    1.4696  -12.8244 H   0  0
   21.1825   -1.2316  -13.0543 H   0  0
   26.6848    2.3252  -22.8334 H   0  0
   26.6948    3.6597  -21.6687 H   0  0
   25.3148    2.5443  -21.7304 H   0  0
   20.4701    1.0183  -11.3637 H   0  0
   19.9631   -1.7091  -10.2329 H   0  0
   18.9198   -0.6763  -11.1837 H   0  0
   19.4956   -0.6330   -8.2465 H   0  0
   21.5527    5.4587  -20.0632 H   0  0
   21.9453    4.6032  -21.5504 H   0  0
   22.4981    6.2495  -21.3251 H   0  0
   20.4470    2.6522   -9.7833 H   0  0
   25.6009    4.9535  -19.6234 H   0  0
   18.5586    1.6136   -7.9664 H   0  0
   21.9683    2.7366   -7.8369 H   0  0
   20.8984    1.6400   -6.9507 H   0  0
   20.3452    3.2519   -7.3911 H   0  0
   24.1451    7.3750  -20.8306 H   0  0
   25.7266    6.8294  -21.3862 H   0  0
   25.5043    7.3967  -19.7312 H   0  0
   16.5388    1.6118   -8.7881 H   0  0
   17.1956   -0.0724   -7.1389 H   0  0
   17.1773   -1.8329   -7.4161 H   0  0
   15.8597   -0.8354   -8.0087 H   0  0
   16.9546    4.0311   -9.3827 H   0  0
   15.3157    3.4761   -9.4716 H   0  0
   17.2346    3.8785  -11.8245 H   0  0
   15.4024    0.7246  -12.5526 H   0  0
   15.2875    3.1528  -13.1752 H   0  0
   17.7740    0.3118  -12.7943 H   0  0
   18.1783    1.9740  -12.3881 H   0  0
   17.2892    1.6192  -13.8611 H   0  0
   13.3749    1.4393  -12.8021 H   0  0
   11.6080    3.1131  -10.9360 H   0  0
   10.1769    0.9113  -12.0580 H   0  0
   17.3341    6.1940  -11.9002 H   0  0
   16.8511    6.1917  -10.1941 H   0  0
   15.9437    7.1399  -11.3700 H   0  0
   10.1349    1.8312  -14.4902 H   0  0
   12.5038    2.7928  -15.1157 H   0  0
   11.8063    5.1262  -14.8665 H   0  0
   10.5642    4.6776  -13.6978 H   0  0
   10.4352    4.1683  -15.3776 H   0  0
    7.9555    1.6561  -12.4105 H   0  0
    8.3716    2.6534  -13.8226 H   0  0
    7.6529    3.3979  -12.4234 H   0  0
  1 16  1  0
  2 20  1  0
  2 37  1  0
  3 35  1  0
  3 38  1  0
  4 33  2  0
  5 37  2  0
  6 38  1  0
  6 43  1  0
  7 41  1  0
  7 49  1  0
  8 45  1  0
  8 48  1  0
  9 48  1  0
  9 52  1  0
 10 53  1  0
 10 55  1  0
 11 51  1  0
 11 58  1  0
 12 55  1  0
 12 60  1  0
 13 56  1  0
 14 57  1  0
 14 62  1  0
 15 59  1  0
 16 17  1  0
 16 18  1  0
 16 24  1  0
 17 20  1  0
 17 22  1  0
 17 27  1  0
 18 19  1  0
 18 26  1  0
 19 21  1  0
 19 23  1  0
 20 23  1  0
 21 28  1  0
 21 29  1  0
 21 31  1  0
 22 25  1  0
 22 33  1  0
 24 25  1  0
 26 30  1  0
 28 30  2  0
 28 32  1  0
 29 34  1  0
 32 35  1  0
 33 36  1  0
 34 35  1  0
 37 39  1  0
 38 40  1  0
 39 42  1  0
 39 44  2  0
 40 41  1  0
 41 45  1  0
 43 45  1  0
 43 46  1  0
 44 47  1  0
 48 50  1  0
 50 51  1  0
 51 53  1  0
 52 53  1  0
 52 54  1  0
 55 56  1  0
 56 57  1  0
 57 59  1  0
 59 60  1  0
 60 61  1  0
  1 63  1  0
 13 64  1  0
 15 65  1  0
 18 66  1  0
 19 67  1  0
 20 68  1  0
 22 69  1  0
 23 70  1  0
 23 71  1  0
 24 72  1  0
 24 73  1  0
 25 74  1  0
 25 75  1  0
 26 76  1  0
 26 77  1  0
 27 78  1  0
 27 79  1  0
 27 80  1  0
 29 81  1  0
 29 82  1  0
 30 83  1  0
 31 84  1  0
 31 85  1  0
 31 86  1  0
 32 87  1  0
 32 88  1  0
 34 89  1  0
 34 90  1  0
 35 91  1  0
 36 92  1  0
 36 93  1  0
 36 94  1  0
 38 95  1  0
 40 96  1  0
 40 97  1  0
 41 98  1  0
 42 99  1  0
 42100  1  0
 42101  1  0
 43102  1  0
 44103  1  0
 45104  1  0
 46105  1  0
 46106  1  0
 46107  1  0
 47108  1  0
 47109  1  0
 47110  1  0
 48111  1  0
 49112  1  0
 49113  1  0
 49114  1  0
 50115  1  0
 50116  1  0
 51117  1  0
 52118  1  0
 53119  1  0
 54120  1  0
 54121  1  0
 54122  1  0
 55123  1  0
 56124  1  0
 57125  1  0
 58126  1  0
 58127  1  0
 58128  1  0
 59129  1  0
 60130  1  0
 61131  1  0
 61132  1  0
 61133  1  0
 62134  1  0
 62135  1  0
 62136  1  0
M  END
> <Name>
9832662

> <Binding Energy>
-75.3659

> <Ligand Energy>
112.9626

> <Protein Energy>
-7801.1566

> <Complex Energy>
-7763.56

> <Complex Entropy>
-31.5131

> <Protein Entropy>
-31.4717

> <Ligand Entropy>
-22.4857

> <Entropic Energy>
22.4443

> <AbsoluteEnergy>
102.632

> <ConfNumber>
99

> <IonizationIndex>
1

> <MOL_NUMBER>
1334

> <NumberOfIonizations>
1

> <NumberOfStereoisomers>
2

> <NumberOfTautomers>
1

> <PUBCHEM_ATOM_DEF_STEREO_COUNT>
20

> <PUBCHEM_ATOM_UDEF_STEREO_COUNT>
1

> <PUBCHEM_BONDANNOTATIONS>
16  1  6
53  10  5
55  10  5
51  11  5
56  13  6
57  14  5
59  15  6
17  27  5
18  63  5
19  64  6
20  2  5
21  31  5
22  33  5
35  3  5
38  3  5
43  46  5
52  54  6
60  61  5
41  7  6
45  8  3
48  8  6

> <PUBCHEM_BOND_DEF_STEREO_COUNT>
1

> <PUBCHEM_BOND_UDEF_STEREO_COUNT>
0

> <PUBCHEM_CACTVS_COMPLEXITY>
1670

> <PUBCHEM_CACTVS_HBOND_ACCEPTOR>
15

> <PUBCHEM_CACTVS_HBOND_DONOR>
3

> <PUBCHEM_CACTVS_ROTATABLE_BOND>
13

> <PUBCHEM_CACTVS_SUBSKEYS>
AAADcfB8PAAAAAAAAAAAAAAAAAAAAYAAAAA0aJECAAAAAGCAAAAAGgAACAAAD1SwgAMCCAAABgCIAqDSCAAAAAAgAAAACAEAAEgRFBIAIQAiUAAFwAAPIYPK7PzPgAAAAAAAAADAAAYQADAAAYAADAAAAA==

> <PUBCHEM_CACTVS_TAUTO_COUNT>
-1

> <PUBCHEM_CACTVS_TPSA>
187

> <PUBCHEM_COMPONENT_COUNT>
1

> <PUBCHEM_COMPOUND_CANONICALIZED>
1

> <PUBCHEM_COMPOUND_CID>
9832662

> <PUBCHEM_COORDINATE_TYPE>
1
5
255

> <PUBCHEM_EXACT_MASS>
878.50277165

> <PUBCHEM_HEAVY_ATOM_COUNT>
62

> <PUBCHEM_ISOTOPIC_ATOM_COUNT>
0

> <PUBCHEM_IUPAC_CAS_NAME>
(E)-2-methyl-2-butenoic acid [(3S,8R,9S,10R,12R,13S,14R,17S)-17-acetyl-3-[[(2R,4S,6R)-5-[[(2S,4S,5R,6R)-5-[[(2S,3R,4S,5R,6R)-3,5-dihydroxy-4-methoxy-6-methyl-2-oxanyl]oxy]-4-methoxy-6-methyl-2-oxanyl]
oxy]-4-methoxy-6-methyl-2-oxanyl]oxy]-14-hydroxy-10,13-dimethyl-1,2,3,4,7,8,9,11,12,15,16,17-dodecahydrocyclopenta[a]phenanthren-12-yl] ester

> <PUBCHEM_IUPAC_INCHI>
InChI=1S/C47H74O15/c1-12-23(2)43(51)60-35-20-32-31(47(52)18-16-30(24(3)48)46(35,47)8)14-13-28-19-29(15-17-45(28,32)7)59-36-21-33(53-9)40(26(5)56-36)61-37-22-34(54-10)41(27(6)57-37)62-44-39(50)42(55-11
)38(49)25(4)58-44/h12-13,25-27,29-42,44,49-50,52H,14-22H2,1-11H3/b23-12+/t25-,26-,27-,29+,30-,31-,32+,33+,34+,35-,36+,37+,38-,39-,40?,41-,42+,44+,45+,46+,47-/m1/s1

> <PUBCHEM_IUPAC_INCHIKEY>
CBMQKMMZBOSHHP-DUAPJEAJSA-N

> <PUBCHEM_IUPAC_NAME>
[(3S,8R,9S,10R,12R,13S,14R,17S)-17-acetyl-3-[(2R,4S,6R)-5-[(2S,4S,5R,6R)-5-[(2S,3R,4S,5R,6R)-3,5-dihydroxy-4-methoxy-6-methyloxan-2-yl]oxy-4-methoxy-6-methyloxan-2-yl]oxy-4-methoxy-6-methyloxan-2-yl]o
xy-14-hydroxy-10,13-dimethyl-1,2,3,4,7,8,9,11,12,15,16,17-dodecahydrocyclopenta[a]phenanthren-12-yl] (E)-2-methylbut-2-enoate

> <PUBCHEM_IUPAC_NAME_MARKUP>
[(3<I>S</I>,8<I>R</I>,9<I>S</I>,10<I>R</I>,12<I>R</I>,13<I>S</I>,14<I>R</I>,17<I>S</I>)-17-acetyl-3-[(2<I>R</I>,4<I>S</I>,6<I>R</I>)-5-[(2<I>S</I>,4<I>S</I>,5<I>R</I>,6<I>R</I>)-5-[(2<I>S</I>,3<I>R</I
>,4<I>S</I>,5<I>R</I>,6<I>R</I>)-3,5-dihydroxy-4-methoxy-6-methyloxan-2-yl]oxy-4-methoxy-6-methyloxan-2-yl]oxy-4-methoxy-6-methyloxan-2-yl]oxy-14-hydroxy-10,13-dimethyl-1,2,3,4,7,8,9,11,12,15,16,17-do
decahydrocyclopenta[a]phenanthren-12-yl] (<I>E</I>)-2-methylbut-2-enoate

> <PUBCHEM_IUPAC_OPENEYE_NAME>
[(3S,8R,9S,10R,12R,13S,14R,17S)-17-acetyl-3-[(2R,4S,6R)-5-[(2S,4S,5R,6R)-5-[(2S,3R,4S,5R,6R)-3,5-dihydroxy-4-methoxy-6-methyl-tetrahydropyran-2-yl]oxy-4-methoxy-6-methyl-tetrahydropyran-2-yl]oxy-4-met
hoxy-6-methyl-tetrahydropyran-2-yl]oxy-14-hydroxy-10,13-dimethyl-1,2,3,4,7,8,9,11,12,15,16,17-dodecahydrocyclopenta[a]phenanthren-12-yl] (E)-2-methylbut-2-enoate

> <PUBCHEM_IUPAC_SYSTEMATIC_NAME>
[(3S,8R,9S,10R,12R,13S,14R,17S)-17-ethanoyl-3-[(2R,4S,6R)-4-methoxy-5-[(2S,4S,5R,6R)-4-methoxy-5-[(2S,3R,4S,5R,6R)-4-methoxy-6-methyl-3,5-bis(oxidanyl)oxan-2-yl]oxy-6-methyl-oxan-2-yl]oxy-6-methyl-oxa
n-2-yl]oxy-10,13-dimethyl-14-oxidanyl-1,2,3,4,7,8,9,11,12,15,16,17-dodecahydrocyclopenta[a]phenanthren-12-yl] (E)-2-methylbut-2-enoate

> <PUBCHEM_IUPAC_TRADITIONAL_NAME>
(E)-2-methylbut-2-enoic acid [(3S,8R,9S,10R,12R,13S,14R,17S)-17-acetyl-3-[(2R,4S,6R)-5-[(2S,4S,5R,6R)-5-[(2S,3R,4S,5R,6R)-3,5-dihydroxy-4-methoxy-6-methyl-tetrahydropyran-2-yl]oxy-4-methoxy-6-methyl-t
etrahydropyran-2-yl]oxy-4-methoxy-6-methyl-tetrahydropyran-2-yl]oxy-14-hydroxy-10,13-dimethyl-1,2,3,4,7,8,9,11,12,15,16,17-dodecahydrocyclopenta[a]phenanthren-12-yl] ester

> <PUBCHEM_MOLECULAR_FORMULA>
C47H74O15

> <PUBCHEM_MOLECULAR_WEIGHT>
879.1

> <PUBCHEM_MONOISOTOPIC_WEIGHT>
878.50277165

> <PUBCHEM_OPENEYE_CAN_SMILES>
CC=C(C)C(=O)OC1CC2C(CC=C3C2(CCC(C3)OC4CC(C(C(O4)C)OC5CC(C(C(O5)C)OC6C(C(C(C(O6)C)O)OC)O)OC)OC)C)C7(C1(C(CC7)C(=O)C)C)O

> <PUBCHEM_OPENEYE_ISO_SMILES>
C/C=C(\C)/C(=O)O[C@@H]1C[C@H]2[C@@H](CC=C3[C@@]2(CC[C@@H](C3)O[C@H]4C[C@@H](C([C@H](O4)C)O[C@H]5C[C@@H]([C@@H]([C@H](O5)C)O[C@H]6[C@@H]([C@H]([C@@H]([C@H](O6)C)O)OC)O)OC)OC)C)[C@]7([C@]1([C@H](CC7)C(=
O)C)C)O

> <PUBCHEM_TOTAL_CHARGE>
0

> <PUBCHEM_XLOGP3_AA>
3.5

> <RelativeEnergy>
18.8386

> <StereoisomerIndex>
1

> <TautomerIndex>
1

> <POSE_NUMBER>
1

> <LibDockScore>
145

> <HotSpots>
16.61,6.47,-11.46,A,30,58
11.21,4.87,-14.65,A,18,60
7.61,3.27,-13.26,A,25,62

> <-In-Situ Starting Energy>
-7096.23069

> <-In-Situ Final Energy>
-74.234173

> <In-Situ Gradient>
0.006552579509

$$$$
99924
  SciTegic09142310043D

 75 80  0  0  0  0            999 V2000
   13.2673    4.7536  -10.4395 O   0  0  0  1  0  0
   10.5914    5.0378  -10.6322 O   0  0  0  1  0  0
   12.7484    4.0088   -8.1242 O   0  0  0  1  0  0
   12.0862   -0.9872  -11.5360 O   0  0  0  1  0  0
    8.1420    2.0276  -12.4333 O   0  0  0  1  0  0
   10.6712    4.0233  -14.9079 O   0  0  0  1  0  0
   14.6038    0.9569   -6.0312 O   0  0  0  1  0  0
   14.5740    2.2101  -10.5123 N   0  3  2  1  0  0
   12.2670    1.2492  -10.4736 C   0  0  3  1  0  0
   12.2406    1.6837   -8.9650 C   0  0  3  1  0  0
   13.1754    2.3708  -10.9765 C   0  0  3  1  0  0
   10.8899    1.3782  -11.2311 C   0  0  3  1  0  0
   12.4432    3.6075  -10.4269 C   0  0  3  1  0  0
   10.1924    2.7552  -11.2043 C   0  0  3  1  0  0
   11.1990    3.9285  -11.2659 C   0  0  3  1  0  0
   11.9936    3.2082   -9.0109 C   0  0  2  1  0  0
   13.6030    1.3147   -8.2895 C   0  0  3  1  0  0
   12.8599   -0.1920  -10.6638 C   0  0  1  1  0  0
   10.9435    1.0889  -12.7451 C   0  0  0  1  0  0
   10.2642    2.2514  -13.4650 C   0  0  3  1  0  0
    9.3034    2.8251  -12.4494 C   0  0  1  1  0  0
   11.5147    4.3587  -12.7215 C   0  0  0  1  0  0
   14.7314    2.0789   -9.0454 C   0  0  0  1  0  0
   13.8088   -0.2242   -8.3558 C   0  0  0  1  0  0
   11.2700    3.3330  -13.8375 C   0  0  2  1  0  0
   12.8887   -0.9375   -9.3419 C   0  0  0  1  0  0
   13.6454    1.6906   -6.7750 C   0  0  0  1  0  0
   15.5015    3.1497  -11.1848 C   0  0  0  1  0  0
   12.0330    4.6525   -7.0890 C   0  0  0  1  0  0
   16.2737    4.1600  -10.3284 C   0  0  0  1  0  0
   12.7208   -1.4781  -12.7048 C   0  0  0  1  0  0
    7.1910    2.4600  -13.3896 C   0  0  0  1  0  0
   11.5537    4.7313  -15.7372 C   0  0  0  1  0  0
   13.1107    5.2405   -9.6340 H   0  0
   11.2329    5.7350  -10.5509 H   0  0
   15.4932    1.1651   -6.3014 H   0  0
   14.8606    1.3114  -10.8676 H   0  0
   11.4232    1.1933   -8.4344 H   0  0
   13.2093    2.3807  -12.0645 H   0  0
   10.1961    0.6625  -10.7856 H   0  0
    9.6067    2.8263  -10.3060 H   0  0
   10.9361    3.4090   -8.8436 H   0  0
   13.8831   -0.1575  -11.0340 H   0  0
   11.9501    0.9453  -13.1282 H   0  0
   10.4003    0.1671  -12.9420 H   0  0
    9.7609    1.8950  -14.3627 H   0  0
    9.0170    3.8600  -12.6552 H   0  0
   12.5148    4.7810  -12.8144 H   0  0
   10.7859    5.1306  -12.9573 H   0  0
   15.7042    1.6217   -8.8626 H   0  0
   14.8096    3.0811   -8.6328 H   0  0
   13.5979   -0.6736   -7.3862 H   0  0
   14.8498   -0.4709   -8.5653 H   0  0
   12.2020    2.8686  -14.1629 H   0  0
   13.2110   -1.9687   -9.4776 H   0  0
   11.8779   -1.0024   -8.9369 H   0  0
   12.6774    1.4566   -6.3292 H   0  0
   13.8068    2.7515   -6.5772 H   0  0
   16.2317    2.5353  -11.7126 H   0  0
   14.9653    3.6918  -11.9659 H   0  0
   11.3154    5.3613   -7.5036 H   0  0
   12.7236    5.2022   -6.4486 H   0  0
   11.5034    3.9207   -6.4778 H   0  0
   16.9356    3.6528   -9.6279 H   0  0
   15.6195    4.8169   -9.7592 H   0  0
   16.8735    4.8041  -10.9705 H   0  0
   13.2931   -2.3715  -12.4773 H   0  0
   13.3856   -0.7363  -13.1483 H   0  0
   11.9703   -1.7435  -13.4499 H   0  0
    7.6314    2.5179  -14.3855 H   0  0
    6.8091    3.4463  -13.1228 H   0  0
    6.3558    1.7692  -13.4424 H   0  0
   11.1204    4.8142  -16.7286 H   0  0
   12.4842    4.1792  -15.8376 H   0  0
   11.7462    5.7282  -15.3424 H   0  0
  1 13  1  0
  2 15  1  0
  3 16  1  0
  3 29  1  0
  4 18  1  0
  4 31  1  0
  5 21  1  0
  5 32  1  0
  6 25  1  0
  6 33  1  0
  7 27  1  0
  8 11  1  0
  8 23  1  0
  8 28  1  0
  9 10  1  0
  9 11  1  0
  9 12  1  0
  9 18  1  0
 10 16  1  0
 10 17  1  0
 11 13  1  0
 12 14  1  0
 12 19  1  0
 13 15  1  0
 13 16  1  0
 14 15  1  0
 14 21  1  0
 15 22  1  0
 17 23  1  0
 17 24  1  0
 17 27  1  0
 18 26  1  0
 19 20  1  0
 20 21  1  0
 20 25  1  0
 22 25  1  0
 24 26  1  0
 28 30  1  0
  1 34  1  0
  2 35  1  0
  7 36  1  0
  8 37  1  0
 10 38  1  0
 11 39  1  0
 12 40  1  0
 14 41  1  0
 16 42  1  0
 18 43  1  0
 19 44  1  0
 19 45  1  0
 20 46  1  0
 21 47  1  0
 22 48  1  0
 22 49  1  0
 23 50  1  0
 23 51  1  0
 24 52  1  0
 24 53  1  0
 25 54  1  0
 26 55  1  0
 26 56  1  0
 27 57  1  0
 27 58  1  0
 28 59  1  0
 28 60  1  0
 29 61  1  0
 29 62  1  0
 29 63  1  0
 30 64  1  0
 30 65  1  0
 30 66  1  0
 31 67  1  0
 31 68  1  0
 31 69  1  0
 32 70  1  0
 32 71  1  0
 32 72  1  0
 33 73  1  0
 33 74  1  0
 33 75  1  0
M  CHG  1   8   1
M  END
> <Name>
99924

> <Binding Energy>
-54.064

> <Ligand Energy>
156.4968

> <Protein Energy>
-7801.1566

> <Complex Energy>
-7698.7238

> <Complex Entropy>
-31.4879

> <Protein Entropy>
-31.4717

> <Ligand Entropy>
-20.2638

> <Entropic Energy>
20.2476

> <AbsoluteEnergy>
92.9683

> <ConfNumber>
16

> <Ionization pH>
7.5

> <IonizationIndex>
1

> <MOL_NUMBER>
1355

> <NumberOfIonizations>
1

> <NumberOfStereoisomers>
32

> <NumberOfTautomers>
1

> <PUBCHEM_ATOM_DEF_STEREO_COUNT>
0

> <PUBCHEM_ATOM_UDEF_STEREO_COUNT>
13

> <PUBCHEM_BONDANNOTATIONS>
10  34  3
11  35  3
12  36  3
13  16  3
14  37  3
16  38  3
17  24  3
18  39  3
15  2  3
20  42  3
21  43  3
25  50  3
9  18  3

> <PUBCHEM_BOND_DEF_STEREO_COUNT>
0

> <PUBCHEM_BOND_UDEF_STEREO_COUNT>
0

> <PUBCHEM_CACTVS_COMPLEXITY>
814

> <PUBCHEM_CACTVS_HBOND_ACCEPTOR>
8

> <PUBCHEM_CACTVS_HBOND_DONOR>
3

> <PUBCHEM_CACTVS_ROTATABLE_BOND>
6

> <PUBCHEM_CACTVS_SUBSKEYS>
AAADcfB6OAAAAAAAAAAAAAAAAAAAAYMAAAA8YMEAB4gWAGAAAAAAHgAACAAAD3zhgAYCAAMABgAAAAAAAAAAAAAAAAAAAAAIAAADEAIAgAAEQAAHAACTAAHw8P8PgAAAAAAAAADQAAaUADSgAaEADSgAAA==

> <PUBCHEM_CACTVS_TAUTO_COUNT>
1

> <PUBCHEM_CACTVS_TPSA>
101

> <PUBCHEM_COMPONENT_COUNT>
1

> <PUBCHEM_COMPOUND_CANONICALIZED>
1

> <PUBCHEM_COMPOUND_CID>
99924

> <PUBCHEM_COORDINATE_TYPE>
1
5
255

> <PUBCHEM_EXACT_MASS>
467.28830265

> <PUBCHEM_HEAVY_ATOM_COUNT>
33

> <PUBCHEM_ISOTOPIC_ATOM_COUNT>
0

> <PUBCHEM_IUPAC_CAS_NAME>
11-ethyl-13-(hydroxymethyl)-4,6,16,18-tetramethoxy-11-azahexacyclo[7.7.2.12,5.01,10.03,8.013,17]nonadecane-8,9-diol

> <PUBCHEM_IUPAC_INCHI>
InChI=1S/C25H41NO7/c1-6-26-11-22(12-27)8-7-16(31-3)24-14-9-13-15(30-2)10-23(28,17(14)18(13)32-4)25(29,21(24)26)20(33-5)19(22)24/h13-21,27-29H,6-12H2,1-5H3

> <PUBCHEM_IUPAC_INCHIKEY>
YOTUXHIWBVZAJQ-UHFFFAOYSA-N

> <PUBCHEM_IUPAC_NAME>
11-ethyl-13-(hydroxymethyl)-4,6,16,18-tetramethoxy-11-azahexacyclo[7.7.2.12,5.01,10.03,8.013,17]nonadecane-8,9-diol

> <PUBCHEM_IUPAC_NAME_MARKUP>
11-ethyl-13-(hydroxymethyl)-4,6,16,18-tetramethoxy-11-azahexacyclo[7.7.2.1<SUP>2,5</SUP>.0<SUP>1,10</SUP>.0<SUP>3,8</SUP>.0<SUP>13,17</SUP>]nonadecane-8,9-diol

> <PUBCHEM_IUPAC_OPENEYE_NAME>
11-ethyl-13-(hydroxymethyl)-4,6,16,18-tetramethoxy-11-azahexacyclo[7.7.2.12,5.01,10.03,8.013,17]nonadecane-8,9-diol

> <PUBCHEM_IUPAC_SYSTEMATIC_NAME>
11-ethyl-13-(hydroxymethyl)-4,6,16,18-tetramethoxy-11-azahexacyclo[7.7.2.12,5.01,10.03,8.013,17]nonadecane-8,9-diol

> <PUBCHEM_IUPAC_TRADITIONAL_NAME>
11-ethyl-4,6,16,18-tetramethoxy-13-methylol-11-azahexacyclo[7.7.2.12,5.01,10.03,8.013,17]nonadecane-8,9-diol

> <PUBCHEM_MOLECULAR_FORMULA>
C25H41NO7

> <PUBCHEM_MOLECULAR_WEIGHT>
467.6

> <PUBCHEM_MONOISOTOPIC_WEIGHT>
467.28830265

> <PUBCHEM_OPENEYE_CAN_SMILES>
CCN1CC2(CCC(C34C2C(C(C31)(C5(CC(C6CC4C5C6OC)OC)O)O)OC)OC)CO

> <PUBCHEM_OPENEYE_ISO_SMILES>
CCN1CC2(CCC(C34C2C(C(C31)(C5(CC(C6CC4C5C6OC)OC)O)O)OC)OC)CO

> <PUBCHEM_TOTAL_CHARGE>
0

> <PUBCHEM_XLOGP3_AA>
-0.6

> <RelativeEnergy>
15.8053

> <StereoisomerIndex>
20

> <TautomerIndex>
1

> <POSE_NUMBER>
3

> <LibDockScore>
108.0204

> <HotSpots>
11.01,5.47,-15.65,P,18,6
16.61,6.47,-11.46,A,30,30
7.61,3.27,-13.26,A,25,32

> <-In-Situ Starting Energy>
-2134.51775

> <-In-Situ Final Energy>
-97.189247

> <In-Situ Gradient>
0.0009671200769

$$$$
159134
  SciTegic09142310043D

104109  0  0  0  0            999 V2000
   17.1910   -0.6850  -17.2693 O   0  0  0  1  0  0
   17.5156   -2.9268  -17.3059 O   0  0  0  1  0  0
   16.3402   -3.1555  -19.2433 O   0  0  0  1  0  0
   16.0797   -0.6066  -13.2966 O   0  0  0  1  0  0
   15.7699   -3.0719  -14.8328 O   0  0  0  1  0  0
   16.2147    1.7374  -14.7696 O   0  0  0  1  0  0
   16.3376   -7.9299  -18.9302 O   0  0  0  1  0  0
   17.0386    1.5653  -18.8982 O   0  0  0  1  0  0
   11.6302    2.0624  -12.7696 O   0  0  0  1  0  0
   12.5580    4.1000  -12.0403 O   0  0  0  1  0  0
   14.7915   -6.8075  -17.7984 O   0  0  0  1  0  0
    9.5509    4.9436  -12.3013 O   0  0  0  1  0  0
    9.0759    1.2865  -12.4735 O   0  0  0  1  0  0
   10.2709    1.9668  -10.2648 O   0  0  0  1  0  0
   18.1003    2.1808  -13.6773 O   0  0  0  1  0  0
   17.4982   -4.4717  -15.1049 O   0  0  0  1  0  0
   15.1147   -0.3427  -11.3059 O   0  0  0  1  0  0
   12.3245    3.5608  -15.0300 O   0  0  0  1  0  0
   14.0061    2.0992  -13.5231 O   0  0  0  1  0  0
   19.2523    1.7316  -19.2854 O   0  0  0  1  0  0
   15.9794   -0.6621  -14.7235 C   0  0  2  1  0  0
   16.5822   -1.9699  -15.2620 C   0  0  2  1  0  0
   16.7413    0.5251  -15.3041 C   0  0  1  1  0  0
   16.6556   -1.9175  -16.8103 C   0  0  1  1  0  0
   17.9615   -5.5147  -18.8450 C   0  0  2  1  0  0
   18.5608   -4.1212  -19.1755 C   0  0  2  1  0  0
   16.5659    0.4983  -16.8136 C   0  0  1  1  0  0
   17.6342   -2.9788  -18.7119 C   0  0  2  1  0  0
   18.2771   -6.6075  -19.8815 C   0  0  0  1  0  0
   16.4708   -5.4935  -18.7480 C   0  0  0  1  0  0
   17.2078    1.7090  -17.4872 C   0  0  0  1  0  0
   17.6084   -7.9745  -19.5991 C   0  0  0  1  0  0
   18.8459   -3.9230  -20.6435 C   0  0  0  1  0  0
   15.7733   -4.3599  -18.9651 C   0  0  0  1  0  0
   15.8104   -6.7970  -18.4766 C   0  0  0  1  0  0
    9.4523    3.6039  -11.8450 C   0  0  1  1  0  0
    9.3132    2.5891  -12.9874 C   0  0  1  1  0  0
   10.6153    3.1769  -10.9107 C   0  0  2  1  0  0
   10.6508    2.4879  -13.6987 C   0  0  1  1  0  0
   11.9307    2.8920  -11.6612 C   0  0  1  1  0  0
   16.8935    2.3392  -13.8070 C   0  0  0  1  0  0
   16.3162   -4.2838  -14.8532 C   0  0  0  1  0  0
   15.0136   -0.6046  -12.4968 C   0  0  0  1  0  0
   20.0685   -3.7166  -21.1627 C   0  0  0  1  0  0
   11.0615    3.7738  -14.4318 C   0  0  0  1  0  0
   16.0584    3.2408  -12.9966 C   0  0  0  1  0  0
   15.3394   -5.3414  -14.5630 C   0  0  0  1  0  0
   13.9478    4.0558  -12.1284 C   0  0  0  1  0  0
   13.6437   -0.9846  -13.0812 C   0  0  0  1  0  0
   14.6727    3.1074  -12.8644 C   0  0  0  1  0  0
   18.1072    1.5430  -19.6728 C   0  0  0  1  0  0
   16.6975    4.2960  -12.3634 C   0  0  0  1  0  0
   14.6172    5.0878  -11.4850 C   0  0  0  1  0  0
   15.9940    5.1990  -11.5822 C   0  0  0  1  0  0
   15.6678   -6.6523  -14.8886 C   0  0  0  1  0  0
   14.0795   -5.0658  -14.0319 C   0  0  0  1  0  0
   17.7867    1.2528  -21.1356 C   0  0  0  1  0  0
   14.7173   -7.6563  -14.7758 C   0  0  0  1  0  0
   13.1394   -6.0780  -13.8860 C   0  0  0  1  0  0
   13.4477   -7.3666  -14.2951 C   0  0  0  1  0  0
    8.8109    5.1668  -12.8662 H   0  0
    8.2508    1.2412  -11.9995 H   0  0
   10.1470    1.3008  -10.9446 H   0  0
   12.6348    4.3881  -15.3804 H   0  0
   13.2395    2.4788  -13.9480 H   0  0
   14.9459   -0.5813  -15.0564 H   0  0
   17.5930   -2.0720  -14.8613 H   0  0
   17.8039    0.4130  -15.0751 H   0  0
   15.6478   -2.0457  -17.2094 H   0  0
   18.3448   -5.8148  -17.8685 H   0  0
   19.5036   -4.0280  -18.6350 H   0  0
   15.5074    0.4789  -17.0791 H   0  0
   18.0363   -2.0305  -19.0728 H   0  0
   17.9251   -6.2851  -20.8616 H   0  0
   19.3556   -6.7404  -19.9713 H   0  0
   16.7124    2.6303  -17.1787 H   0  0
   18.2580    1.7927  -17.1977 H   0  0
   18.2573   -8.6334  -19.0315 H   0  0
   17.4556   -8.4911  -20.5469 H   0  0
   17.9886   -3.9420  -21.2896 H   0  0
   14.7054   -4.3350  -18.9504 H   0  0
    8.5521    3.5527  -11.2688 H   0  0
    8.5260    2.8506  -13.7024 H   0  0
   10.7739    3.9264  -10.1348 H   0  0
   10.5551    1.6885  -14.4296 H   0  0
   12.5952    2.3464  -10.9863 H   0  0
   20.9462   -3.6885  -20.5439 H   0  0
   20.2104   -3.5719  -22.2176 H   0  0
   10.3231    4.0183  -15.1965 H   0  0
   11.1184    4.6341  -13.7679 H   0  0
   13.7224   -1.8785  -13.6945 H   0  0
   13.2344   -0.1722  -13.6775 H   0  0
   12.9525   -1.1871  -12.2642 H   0  0
   17.7570    4.4220  -12.5142 H   0  0
   14.0564    5.8140  -10.9150 H   0  0
   16.5173    6.0037  -11.0839 H   0  0
   16.6457   -6.8842  -15.2917 H   0  0
   13.8007   -4.0570  -13.7790 H   0  0
   16.7076    1.2221  -21.2832 H   0  0
   18.2090    0.2891  -21.4176 H   0  0
   18.2179    2.0298  -21.7648 H   0  0
   14.9666   -8.6562  -15.0878 H   0  0
   12.1607   -5.8583  -13.4832 H   0  0
   12.7020   -8.1445  -14.2251 H   0  0
  1 24  1  0
  1 27  1  0
  2 24  1  0
  2 28  1  0
  3 28  1  0
  3 34  1  0
  4 21  1  0
  4 43  1  0
  5 22  1  0
  5 42  1  0
  6 23  1  0
  6 41  1  0
  7 32  1  0
  7 35  1  0
  8 31  1  0
  8 51  1  0
  9 39  1  0
  9 40  1  0
 10 40  1  0
 10 48  1  0
 11 35  2  0
 12 36  1  0
 13 37  1  0
 14 38  1  0
 15 41  2  0
 16 42  2  0
 17 43  2  0
 18 45  1  0
 19 50  1  0
 20 51  2  0
 21 22  1  0
 21 23  1  0
 22 24  1  0
 23 27  1  0
 25 26  1  0
 25 29  1  0
 25 30  1  0
 26 28  1  0
 26 33  1  0
 27 31  1  0
 29 32  1  0
 30 34  2  0
 30 35  1  0
 33 44  2  0
 36 37  1  0
 36 38  1  0
 37 39  1  0
 38 40  1  0
 39 45  1  0
 41 46  1  0
 42 47  1  0
 43 49  1  0
 46 50  2  0
 46 52  1  0
 47 55  2  0
 47 56  1  0
 48 50  1  0
 48 53  2  0
 51 57  1  0
 52 54  2  0
 53 54  1  0
 55 58  1  0
 56 59  2  0
 58 60  2  0
 59 60  1  0
 12 61  1  0
 13 62  1  0
 14 63  1  0
 18 64  1  0
 19 65  1  0
 21 66  1  0
 22 67  1  0
 23 68  1  0
 24 69  1  0
 25 70  1  0
 26 71  1  0
 27 72  1  0
 28 73  1  0
 29 74  1  0
 29 75  1  0
 31 76  1  0
 31 77  1  0
 32 78  1  0
 32 79  1  0
 33 80  1  0
 34 81  1  0
 36 82  1  0
 37 83  1  0
 38 84  1  0
 39 85  1  0
 40 86  1  0
 44 87  1  0
 44 88  1  0
 45 89  1  0
 45 90  1  0
 49 91  1  0
 49 92  1  0
 49 93  1  0
 52 94  1  0
 53 95  1  0
 54 96  1  0
 55 97  1  0
 56 98  1  0
 57 99  1  0
 57100  1  0
 57101  1  0
 58102  1  0
 59103  1  0
 60104  1  0
M  END
> <Name>
159134

> <Binding Energy>
-60.7399

> <Ligand Energy>
11.4935

> <Protein Energy>
-7801.1566

> <Complex Energy>
-7850.403

> <Complex Entropy>
-31.5076

> <Protein Entropy>
-31.4717

> <Ligand Entropy>
-22.0723

> <Entropic Energy>
22.0364

> <AbsoluteEnergy>
97.1842

> <ConfNumber>
61

> <Ionization pH>
7.5

> <IonizationIndex>
1

> <MOL_NUMBER>
1432

> <NumberOfIonizations>
1

> <NumberOfStereoisomers>
1

> <NumberOfTautomers>
2

> <PUBCHEM_ATOM_DEF_STEREO_COUNT>
13

> <PUBCHEM_ATOM_UDEF_STEREO_COUNT>
0

> <PUBCHEM_BONDANNOTATIONS>
40  10  5
36  12  5
37  13  6
38  14  6
24  2  5
28  2  6
25  65  6
26  33  5
27  31  5
39  45  5
21  4  5
46  50  8
46  52  8
47  55  8
47  56  8
48  50  8
48  53  8
22  5  6
52  54  8
53  54  8
55  58  8
56  59  8
58  60  8
59  60  8
23  6  6

> <PUBCHEM_BOND_DEF_STEREO_COUNT>
0

> <PUBCHEM_BOND_UDEF_STEREO_COUNT>
0

> <PUBCHEM_CACTVS_COMPLEXITY>
1580

> <PUBCHEM_CACTVS_HBOND_ACCEPTOR>
20

> <PUBCHEM_CACTVS_HBOND_DONOR>
5

> <PUBCHEM_CACTVS_ROTATABLE_BOND>
17

> <PUBCHEM_CACTVS_SUBSKEYS>
AAADcfB8PgAAAAAAAAAAAAAAAAAAAAAAAAA0aJECAAAAAACBQAAAGgAACAAADRSwmAMyDoAABgCIAiDSCAACCAAkIAAIiAEGiMgdNzaGNRqieWOl4BEPuYfK7DyOgAABAAAIQAAAAAIAABCAAAAAAAAAAA==

> <PUBCHEM_CACTVS_TAUTO_COUNT>
4

> <PUBCHEM_CACTVS_TPSA>
279

> <PUBCHEM_COMPONENT_COUNT>
1

> <PUBCHEM_COMPOUND_CANONICALIZED>
1

> <PUBCHEM_COMPOUND_CID>
159134

> <PUBCHEM_COORDINATE_TYPE>
1
5
255

> <PUBCHEM_EXACT_MASS>
844.24259379

> <PUBCHEM_HEAVY_ATOM_COUNT>
60

> <PUBCHEM_ISOTOPIC_ATOM_COUNT>
0

> <PUBCHEM_IUPAC_CAS_NAME>
2-hydroxy-3-[[(2S,3R,4S,5S,6R)-3,4,5-trihydroxy-6-(hydroxymethyl)-2-oxanyl]oxy]benzoic acid [(2R,3R,4S,5R,6S)-4-acetyloxy-2-(acetyloxymethyl)-6-[[(3S,4R,4aS)-4-ethenyl-8-oxo-4,4a,5,6-tetrahydro-3H-pyr
ano[3,4-c]pyran-3-yl]oxy]-5-benzoyloxy-3-oxanyl] ester

> <PUBCHEM_IUPAC_INCHI>
InChI=1S/C40H44O20/c1-4-21-22-13-14-51-36(49)24(22)16-53-38(21)60-40-34(59-35(48)20-9-6-5-7-10-20)33(54-19(3)43)32(27(57-40)17-52-18(2)42)58-37(50)23-11-8-12-25(28(23)44)55-39-31(47)30(46)29(45)26(15-
41)56-39/h4-12,16,21-22,26-27,29-34,38-41,44-47H,1,13-15,17H2,2-3H3/t21-,22+,26-,27-,29-,30+,31-,32-,33+,34-,38+,39-,40+/m1/s1

> <PUBCHEM_IUPAC_INCHIKEY>
SABFJVXXJPRXKP-CFWZQYDDSA-N

> <PUBCHEM_IUPAC_NAME>
[(2R,3R,4S,5R,6S)-4-acetyloxy-2-(acetyloxymethyl)-6-[[(3S,4R,4aS)-4-ethenyl-8-oxo-4,4a,5,6-tetrahydro-3H-pyrano[3,4-c]pyran-3-yl]oxy]-5-benzoyloxyoxan-3-yl] 2-hydroxy-3-[(2S,3R,4S,5S,6R)-3,4,5-trihydr
oxy-6-(hydroxymethyl)oxan-2-yl]oxybenzoate

> <PUBCHEM_IUPAC_NAME_MARKUP>
[(2<I>R</I>,3<I>R</I>,4<I>S</I>,5<I>R</I>,6<I>S</I>)-4-acetyloxy-2-(acetyloxymethyl)-6-[[(3<I>S</I>,4<I>R</I>,4<I>a</I><I>S</I>)-4-ethenyl-8-oxo-4,4<I>a</I>,5,6-tetrahydro-3<I>H</I>-pyrano[3,4-c]pyran
-3-yl]oxy]-5-benzoyloxyoxan-3-yl] 2-hydroxy-3-[(2<I>S</I>,3<I>R</I>,4<I>S</I>,5<I>S</I>,6<I>R</I>)-3,4,5-trihydroxy-6-(hydroxymethyl)oxan-2-yl]oxybenzoate

> <PUBCHEM_IUPAC_OPENEYE_NAME>
[(2R,3R,4S,5R,6S)-4-acetoxy-2-(acetoxymethyl)-6-[[(3S,4R,4aS)-8-oxo-4-vinyl-4,4a,5,6-tetrahydro-3H-pyrano[3,4-c]pyran-3-yl]oxy]-5-benzoyloxy-tetrahydropyran-3-yl] 2-hydroxy-3-[(2S,3R,4S,5S,6R)-3,4,5-t
rihydroxy-6-(hydroxymethyl)tetrahydropyran-2-yl]oxy-benzoate

> <PUBCHEM_IUPAC_SYSTEMATIC_NAME>
[(2R,3R,4S,5R,6S)-4-acetyloxy-2-(acetyloxymethyl)-6-[[(3S,4R,4aS)-4-ethenyl-8-oxidanylidene-4,4a,5,6-tetrahydro-3H-pyrano[3,4-c]pyran-3-yl]oxy]-5-(phenylcarbonyloxy)oxan-3-yl] 3-[(2S,3R,4S,5S,6R)-6-(h
ydroxymethyl)-3,4,5-tris(oxidanyl)oxan-2-yl]oxy-2-oxidanyl-benzoate

> <PUBCHEM_IUPAC_TRADITIONAL_NAME>
2-hydroxy-3-[(2S,3R,4S,5S,6R)-3,4,5-trihydroxy-6-methylol-tetrahydropyran-2-yl]oxy-benzoic acid [(2R,3R,4S,5R,6S)-4-acetoxy-2-(acetoxymethyl)-6-[[(3S,4R,4aS)-8-keto-4-vinyl-4,4a,5,6-tetrahydro-3H-pyra
no[3,4-c]pyran-3-yl]oxy]-5-benzoyloxy-tetrahydropyran-3-yl] ester

> <PUBCHEM_MOLECULAR_FORMULA>
C40H44O20

> <PUBCHEM_MOLECULAR_WEIGHT>
844.8

> <PUBCHEM_MONOISOTOPIC_WEIGHT>
844.24259379

> <PUBCHEM_OPENEYE_CAN_SMILES>
CC(=O)OCC1C(C(C(C(O1)OC2C(C3CCOC(=O)C3=CO2)C=C)OC(=O)C4=CC=CC=C4)OC(=O)C)OC(=O)C5=C(C(=CC=C5)OC6C(C(C(C(O6)CO)O)O)O)O

> <PUBCHEM_OPENEYE_ISO_SMILES>
CC(=O)OC[C@@H]1[C@H]([C@@H]([C@H]([C@@H](O1)O[C@H]2[C@@H]([C@@H]3CCOC(=O)C3=CO2)C=C)OC(=O)C4=CC=CC=C4)OC(=O)C)OC(=O)C5=C(C(=CC=C5)O[C@H]6[C@@H]([C@H]([C@@H]([C@H](O6)CO)O)O)O)O

> <PUBCHEM_TOTAL_CHARGE>
0

> <PUBCHEM_XLOGP3_AA>
2.2

> <RelativeEnergy>
12.0545

> <StereoisomerIndex>
1

> <TautomerIndex>
1

> <POSE_NUMBER>
1

> <LibDockScore>
144.5831

> <HotSpots>
11.01,5.47,-15.65,P,18,18
9.21,3.67,-12.86,A,26,37
15.61,-6.73,-13.65,A,23,60

> <-In-Situ Starting Energy>
-5072.12535

> <-In-Situ Final Energy>
21.916135

> <In-Situ Gradient>
0.0009206324797

$$$$
101799
  SciTegic09142310043D

 36 37  0  0  0  0            999 V2000
    7.9568    0.7307   -0.7569 O   0  0  0  1  0  0
    6.6182    1.3521    1.0685 O   0  0  0  1  0  0
    4.3130    1.4330   -0.7822 O   0  0  0  1  0  0
    6.7227   -0.1074   -3.1778 O   0  0  0  1  0  0
    6.2822   -1.6911   -0.5244 O   0  0  0  1  0  0
    7.2154    4.0721   -2.0162 O   0  0  0  1  0  0
    4.5650    2.4915    2.1383 O   0  0  0  1  0  0
    5.1389    0.4195   -1.3602 C   0  0  1  1  0  0
    6.1870    0.9433   -2.3932 C   0  0  1  1  0  0
    5.8611   -0.3813   -0.2298 C   0  0  2  1  0  0
    7.4102    1.6133   -1.7161 C   0  0  1  1  0  0
    7.1177    0.2996    0.2964 C   0  0  1  1  0  0
    7.2298    3.0134   -1.0876 C   0  0  0  1  0  0
    7.4584    2.0618    1.9009 C   0  0  0  1  0  0
    6.8618    3.0368    2.6665 C   0  0  0  1  0  0
    8.8249    1.9055    1.9704 C   0  0  0  1  0  0
    7.5999    3.8366    3.5230 C   0  0  0  1  0  0
    9.5831    2.6962    2.8210 C   0  0  0  1  0  0
    8.9596    3.6514    3.6029 C   0  0  0  1  0  0
    5.4390    3.2382    2.5814 C   0  0  0  1  0  0
    4.2431    2.1768   -1.3796 H   0  0
    6.0318   -0.7106   -3.4507 H   0  0
    5.6870   -2.0939   -1.1456 H   0  0
    6.3889    4.0498   -2.4873 H   0  0
    4.4093   -0.2253   -1.8559 H   0  0
    5.7462    1.6312   -3.1106 H   0  0
    5.2170   -0.4400    0.6353 H   0  0
    8.1709    1.7364   -2.4872 H   0  0
    7.6622   -0.3967    0.9374 H   0  0
    6.3669    3.0903   -0.4205 H   0  0
    8.1033    3.2028   -0.4646 H   0  0
    9.2708    1.1439    1.3718 H   0  0
    7.1385    4.5995    4.1383 H   0  0
   10.6490    2.5498    2.9074 H   0  0
    9.5202    4.2841    4.2647 H   0  0
    5.1982    4.1963    3.0107 H   0  0
  1 11  1  0
  1 12  1  0
  2 12  1  0
  2 14  1  0
  3  8  1  0
  4  9  1  0
  5 10  1  0
  6 13  1  0
  7 20  2  0
  8  9  1  0
  8 10  1  0
  9 11  1  0
 10 12  1  0
 11 13  1  0
 14 15  2  0
 14 16  1  0
 15 17  1  0
 15 20  1  0
 16 18  2  0
 17 19  2  0
 18 19  1  0
  3 21  1  0
  4 22  1  0
  5 23  1  0
  6 24  1  0
  8 25  1  0
  9 26  1  0
 10 27  1  0
 11 28  1  0
 12 29  1  0
 13 30  1  0
 13 31  1  0
 16 32  1  0
 17 33  1  0
 18 34  1  0
 19 35  1  0
 20 36  1  0
M  END
> <Name>
101799

> <Binding Energy>
-82.8179

> <Ligand Energy>
78.4988

> <Protein Energy>
-7801.1566

> <Complex Energy>
-7805.4758

> <Complex Entropy>
-31.4792

> <Protein Entropy>
-31.4717

> <Ligand Entropy>
-19.0165

> <Entropic Energy>
19.009

> <AbsoluteEnergy>
33.826

> <ConfNumber>
24

> <IonizationIndex>
1

> <MOL_NUMBER>
4

> <NumberOfIonizations>
1

> <NumberOfStereoisomers>
1

> <NumberOfTautomers>
1

> <PUBCHEM_ATOM_DEF_STEREO_COUNT>
5

> <PUBCHEM_ATOM_UDEF_STEREO_COUNT>
0

> <PUBCHEM_BOND_DEF_STEREO_COUNT>
0

> <PUBCHEM_BOND_UDEF_STEREO_COUNT>
0

> <PUBCHEM_CACTVS_TAUTO_COUNT>
1

> <PUBCHEM_COMPONENT_COUNT>
1

> <PUBCHEM_COMPOUND_CID>
101799

> <PUBCHEM_CONFORMER_DIVERSEORDER>
1
69
45
14
42
43
66
75
11
20
15
23
81
46
13
61
48
82
80
22
57
41
68
34
74
67
70
64
18
27
79
39
59
62
7
56
77
8
47
78
51
55
50
72
6
32
2
28
36
40
16
35
73
65
29
49
58
63
12
33
53
76
44
21
83
17
24
30
54
4
10
9
38
19
5
37
60
31
52
3
71
26
25

> <PUBCHEM_CONFORMER_ID>
00018DA700000001

> <PUBCHEM_CONFORMER_RMSD>
0.8

> <PUBCHEM_COORDINATE_TYPE>
2
5
10

> <PUBCHEM_EFFECTIVE_ROTOR_COUNT>
5.2

> <PUBCHEM_FEATURE_SELFOVERLAP>
66.036

> <PUBCHEM_HEAVY_ATOM_COUNT>
20

> <PUBCHEM_ISOTOPIC_ATOM_COUNT>
0

> <PUBCHEM_MMFF94_ENERGY>
63.0666

> <PUBCHEM_MMFF94_PARTIAL_CHARGES>
29
1 -0.56
10 0.28
11 0.28
12 0.56
13 0.28
14 0.08
15 0.09
16 -0.15
17 -0.15
18 -0.15
19 -0.15
2 -0.36
20 0.42
28 0.4
29 0.4
3 -0.68
30 0.4
31 0.4
32 0.15
33 0.15
34 0.15
35 0.15
36 0.06
4 -0.68
5 -0.68
6 -0.68
7 -0.57
8 0.28
9 0.28

> <PUBCHEM_PHARMACOPHORE_FEATURES>
13
1 1 acceptor
1 2 acceptor
1 3 acceptor
1 3 donor
1 4 acceptor
1 4 donor
1 5 acceptor
1 5 donor
1 6 acceptor
1 6 donor
1 7 acceptor
6 1 8 9 10 11 12 rings
6 14 15 16 17 18 19 rings

> <PUBCHEM_SHAPE_FINGERPRINT>
10366900 7 17458068174791001099
104564 63 18123197805307842296
11471102 20 18408609153804540578
11640471 11 17774735224403423897
12236239 1 17918276433355725795
12553582 1 18338234835055277562
12670545 47 17458349684174779683
13134695 92 18408597042308002268
15653759 3 17095246933894650241
16945 1 18408037412079587482
17357779 13 18334853866743013068
1813 80 17841165350564534486
18186145 218 18333452045278663882
18219364 16 18114459067136252853
19049666 15 17314221160093717915
19930381 70 17905045103769611209
20645476 183 18060702806047302047
20645477 70 18335698313185151366
21041028 32 18192717730560984200
21486144 27 18187368757132207363
21639500 275 18337946895629942796
23175994 123 18188783733733399466
23402539 116 18273215309704406540
23493267 7 16081642284058417639
23526113 38 17749662979077198051
23557571 272 16515972458295372183
23559900 14 16226328084299483602
23598291 2 17988638575752048103
238 59 17973974479261016725
25 1 18333449863318973194
3286 77 18188225281175096907
350125 39 17904213859545185826
3524813 1 17603588504293342071
474 4 18340208595406672624
6049 1 17530968007383109445
633830 44 18271257109259649300
6438718 38 17840024035777031353
6992083 37 17846503590980041397
74978 22 18340773744367615923
7615 1 17774999145690572373
77492 1 17846495915789288691
81228 2 15806325414493773371

> <PUBCHEM_SHAPE_MULTIPOLES>
370.51
7.64
2.39
1.71
0.35
1.27
-0.83
0.24
0.03
2.75
0.14
-2.84
-0.2
-0.39

> <PUBCHEM_SHAPE_SELFOVERLAP>
778.496

> <PUBCHEM_SHAPE_VOLUME>
205.9

> <RelativeEnergy>
4.47934

> <StereoisomerIndex>
1

> <TautomerIndex>
1

> <POSE_NUMBER>
1

> <LibDockScore>
96.8788

> <HotSpots>
7.61,2.87,-1.05,A,58,13
9.21,2.67,2.54,A,84,16
7.81,4.27,4.14,A,90,17

> <-In-Situ Starting Energy>
-339.180098

> <-In-Situ Final Energy>
-3.80540483

> <In-Situ Gradient>
0.000915149783

$$$$
10994
  SciTegic09142310043D

 13 12  0  0  0  0            999 V2000
    8.3575    6.7677   -5.2740 N   0  0  0  1  0  0
    5.6569    9.9836    0.0540 N   0  0  0  1  0  0
    7.2511    9.0367   -2.8985 C   0  0  0  1  0  0
    8.4623    8.9548   -3.8418 C   0  0  0  1  0  0
    7.4101   10.1770   -1.8806 C   0  0  0  1  0  0
    8.4024    7.7524   -4.6654 C   0  0  0  1  0  0
    6.4365   10.0681   -0.7988 C   0  0  0  1  0  0
    6.3330    9.1754   -3.4746 H   0  0
    7.1355    8.0858   -2.3738 H   0  0
    8.5079    9.8270   -4.4879 H   0  0
    9.3917    8.9262   -3.2717 H   0  0
    8.4045   10.1555   -1.4388 H   0  0
    7.2919   11.1441   -2.3656 H   0  0
  1  6  3  0
  2  7  3  0
  3  4  1  0
  3  5  1  0
  4  6  1  0
  5  7  1  0
  3  8  1  0
  3  9  1  0
  4 10  1  0
  4 11  1  0
  5 12  1  0
  5 13  1  0
M  END
> <Name>
10994

> <Binding Energy>
-13.6262

> <Ligand Energy>
2.6022

> <Protein Energy>
-7801.1566

> <Complex Energy>
-7812.1806

> <Complex Entropy>
-31.4745

> <Protein Entropy>
-31.4717

> <Ligand Entropy>
-16.3624

> <Entropic Energy>
16.3596

> <AbsoluteEnergy>
0.767463

> <ConfNumber>
1

> <IonizationIndex>
1

> <MOL_NUMBER>
9

> <NumberOfIonizations>
1

> <NumberOfStereoisomers>
1

> <NumberOfTautomers>
1

> <PUBCHEM_ATOM_DEF_STEREO_COUNT>
0

> <PUBCHEM_ATOM_UDEF_STEREO_COUNT>
0

> <PUBCHEM_BOND_DEF_STEREO_COUNT>
0

> <PUBCHEM_BOND_UDEF_STEREO_COUNT>
0

> <PUBCHEM_CACTVS_TAUTO_COUNT>
1

> <PUBCHEM_COMPONENT_COUNT>
1

> <PUBCHEM_COMPOUND_CID>
10994

> <PUBCHEM_CONFORMER_DIVERSEORDER>
1
6
4
5
2
3

> <PUBCHEM_CONFORMER_ID>
00002AF200000001

> <PUBCHEM_CONFORMER_RMSD>
0.4

> <PUBCHEM_COORDINATE_TYPE>
2
5
10

> <PUBCHEM_EFFECTIVE_ROTOR_COUNT>
2

> <PUBCHEM_FEATURE_SELFOVERLAP>
10.149

> <PUBCHEM_HEAVY_ATOM_COUNT>
7

> <PUBCHEM_ISOTOPIC_ATOM_COUNT>
0

> <PUBCHEM_MMFF94_ENERGY>
0.8271

> <PUBCHEM_MMFF94_PARTIAL_CHARGES>
6
1 -0.56
2 -0.56
4 0.2
5 0.2
6 0.36
7 0.36

> <PUBCHEM_PHARMACOPHORE_FEATURES>
2
1 1 acceptor
1 2 acceptor

> <PUBCHEM_SHAPE_FINGERPRINT>
11062470 55 18413107259989423753
12932741 1 15697424641554785002
14325111 11 18410573989467770795
14390081 3 18413669114757813689
177051 138 7925909283485122017
21293036 1 16486970717340471469
29004967 10 14562528466228062774
5460574 1 9223230749816451851

> <PUBCHEM_SHAPE_MULTIPOLES>
134.09
5.69
0.9
0.59
0
0.08
0
-1.88
-0.04
0
0
0
0.02
0

> <PUBCHEM_SHAPE_SELFOVERLAP>
241.893

> <PUBCHEM_SHAPE_VOLUME>
82.1

> <RelativeEnergy>
0

> <StereoisomerIndex>
1

> <TautomerIndex>
1

> <POSE_NUMBER>
1

> <LibDockScore>
62.5914

> <HotSpots>
5.01,10.27,-0.85,P,81,2
7.21,9.27,-3.25,A,45,3
8.41,8.07,-4.86,A,38,6

> <-In-Situ Starting Energy>
13.5802764

> <-In-Situ Final Energy>
17.1548915

> <In-Situ Gradient>
0.0006217577913

$$$$
11020
  SciTegic09142310043D

 28 28  0  0  0  0            999 V2000
    6.6662    4.1180    3.1330 Br  0  0  0  1  0  0
    7.9862   -0.3696    0.4322 O   0  0  0  1  0  0
    4.0227    2.0422    0.7298 O   0  0  0  1  0  0
    5.7471    0.0754    4.4677 O   0  0  0  1  0  0
    6.9286   -0.0882    2.4180 N   0  0  0  1  0  0
    5.0750    1.3058    2.6007 N   0  5  0  1  0  0
    6.4083    1.4676    0.5516 C   0  0  2  1  0  0
    6.0782    1.3028   -0.9738 C   0  0  0  1  0  0
    7.3581    2.6818    0.7577 C   0  0  0  1  0  0
    7.1803    0.2378    1.1218 C   0  0  0  1  0  0
    5.0554    1.6592    1.2978 C   0  0  0  1  0  0
    7.2869    1.3722   -1.9311 C   0  0  0  1  0  0
    5.2628    0.0387   -1.2822 C   0  0  0  1  0  0
    7.8289    3.0014    2.1616 C   0  0  0  1  0  0
    5.9444    0.4468    3.1769 C   0  0  0  1  0  0
    9.0603    2.7087    2.6078 C   0  0  0  1  0  0
    6.5065    0.1009    5.0572 H   0  0
    5.4548    2.1501   -1.2679 H   0  0
    8.2600    2.5082    0.1699 H   0  0
    6.9075    3.5687    0.3084 H   0  0
    8.0295    0.6042   -1.7205 H   0  0
    7.7806    2.3427   -1.9012 H   0  0
    6.9643    1.2273   -2.9626 H   0  0
    4.3158    0.0266   -0.7561 H   0  0
    5.8109   -0.8628   -1.0084 H   0  0
    5.0332   -0.0241   -2.3462 H   0  0
    9.4463    3.0839    3.5370 H   0  0
    9.7125    2.0800    2.0412 H   0  0
  1 14  1  0
  2 10  2  0
  3 11  2  0
  4 15  1  0
  5 10  1  0
  5 15  2  0
  6 11  1  0
  6 15  1  0
  7  8  1  0
  7  9  1  0
  7 10  1  0
  7 11  1  0
  8 12  1  0
  8 13  1  0
  9 14  1  0
 14 16  2  0
  4 17  1  0
  8 18  1  0
  9 19  1  0
  9 20  1  0
 12 21  1  0
 12 22  1  0
 12 23  1  0
 13 24  1  0
 13 25  1  0
 13 26  1  0
 16 27  1  0
 16 28  1  0
M  CHG  1   6  -1
M  END
> <Name>
11020

> <Binding Energy>
-88.693

> <Ligand Energy>
38.2207

> <Protein Energy>
-7801.1566

> <Complex Energy>
-7851.6289

> <Complex Entropy>
-31.4793

> <Protein Entropy>
-31.4717

> <Ligand Entropy>
-18.8693

> <Entropic Energy>
18.8617

> <AbsoluteEnergy>
27.2949

> <ConfNumber>
5

> <Ionization pH>
7.7_D

> <IonizationIndex>
2

> <MOL_NUMBER>
23

> <NumberOfIonizations>
2

> <NumberOfStereoisomers>
2

> <NumberOfTautomers>
3

> <PUBCHEM_ATOM_DEF_STEREO_COUNT>
0

> <PUBCHEM_ATOM_UDEF_STEREO_COUNT>
0

> <PUBCHEM_BOND_DEF_STEREO_COUNT>
0

> <PUBCHEM_BOND_UDEF_STEREO_COUNT>
0

> <PUBCHEM_CACTVS_TAUTO_COUNT>
5

> <PUBCHEM_COMPONENT_COUNT>
1

> <PUBCHEM_COMPOUND_CID>
11020

> <PUBCHEM_CONFORMER_DIVERSEORDER>
1
5
16
6
9
8
3
15
17
13
12
18
7
14
4
10
11
2

> <PUBCHEM_CONFORMER_ID>
00002B0C00000001

> <PUBCHEM_CONFORMER_RMSD>
0.6

> <PUBCHEM_COORDINATE_TYPE>
2
5
10

> <PUBCHEM_EFFECTIVE_ROTOR_COUNT>
3.6

> <PUBCHEM_FEATURE_SELFOVERLAP>
40.636

> <PUBCHEM_HEAVY_ATOM_COUNT>
16

> <PUBCHEM_ISOTOPIC_ATOM_COUNT>
0

> <PUBCHEM_MMFF94_ENERGY>
55.0438

> <PUBCHEM_MMFF94_PARTIAL_CHARGES>
17
1 -0.11
10 0.57
11 0.57
14 -0.03
15 0.69
16 -0.3
2 -0.57
26 0.37
27 0.37
28 0.15
29 0.15
3 -0.57
4 -0.57
5 -0.49
6 -0.49
7 0.12
9 0.14

> <PUBCHEM_PHARMACOPHORE_FEATURES>
8
1 1 hydrophobe
1 2 acceptor
1 3 acceptor
1 4 acceptor
1 5 donor
1 6 donor
3 8 12 13 hydrophobe
6 5 6 7 10 11 15 rings

> <PUBCHEM_SHAPE_FINGERPRINT>
10702982 57 17321816457379276636
12138202 97 17906442238933724636
12326174 3 17757241023584571537
12423570 1 10781610348293885704
13024252 1 16444492073596889096
13299463 15 15936693748005558515
141345 1 17257099168566587833
14617773 55 17823151037879687620
14817 1 14456876239296309381
16945 1 17917159303160184775
23419403 2 17099490073999825864
430814 3 11815335923336897926
528886 8 15502372305505766631
5845 1 11393051126879721477
81228 2 18264492771532734009

> <PUBCHEM_SHAPE_MULTIPOLES>
307.64
3.38
2.52
1.98
1.69
1.58
-0.04
-2.86
-0.04
-1.48
0.32
0.42
0.07
-0.22

> <PUBCHEM_SHAPE_SELFOVERLAP>
625.277

> <PUBCHEM_SHAPE_VOLUME>
181.5

> <RelativeEnergy>
1.55379

> <StereoisomerIndex>
2

> <TautomerIndex>
3

> <POSE_NUMBER>
1

> <LibDockScore>
92.5907

> <HotSpots>
6.61,4.27,3.15,A,86,1
5.81,-0.73,4.54,P,96,4
7.81,2.67,0.94,A,73,9

> <-In-Situ Starting Energy>
-298.691478

> <-In-Situ Final Energy>
32.3478349

> <In-Situ Gradient>
0.0009529604865

$$$$
11107
  SciTegic09142310043D

 20 21  0  0  0  0            999 V2000
    6.2109    1.6985    3.0690 N   0  0  0  1  0  0
    7.5343    1.3091   -3.9099 N   0  0  0  1  0  0
    6.7236    1.5155    0.3178 C   0  0  0  1  0  0
    6.9971    1.4332   -1.1484 C   0  0  0  1  0  0
    6.6823    2.7358    0.9653 C   0  0  0  1  0  0
    6.3671    0.5144   -1.9650 C   0  0  0  1  0  0
    6.5075    0.3860    1.0837 C   0  0  0  1  0  0
    7.8997    2.2857   -1.7478 C   0  0  0  1  0  0
    6.4225    2.7887    2.3281 C   0  0  0  1  0  0
    6.6514    0.4900   -3.3269 C   0  0  0  1  0  0
    6.2667    0.5159    2.4470 C   0  0  0  1  0  0
    8.1408    2.1905   -3.1104 C   0  0  0  1  0  0
    6.8447    3.6621    0.4333 H   0  0
    5.6497   -0.1945   -1.5779 H   0  0
    6.5464   -0.6036    0.6500 H   0  0
    8.4497    3.0169   -1.1749 H   0  0
    6.3867    3.7555    2.8144 H   0  0
    6.1313   -0.2307   -3.9420 H   0  0
    6.1137   -0.3791    3.0352 H   0  0
    8.8529    2.8725   -3.5508 H   0  0
  1  9  2  0
  1 11  1  0
  2 10  2  0
  2 12  1  0
  3  4  1  0
  3  5  2  0
  3  7  1  0
  4  6  2  0
  4  8  1  0
  5  9  1  0
  6 10  1  0
  7 11  2  0
  8 12  2  0
  5 13  1  0
  6 14  1  0
  7 15  1  0
  8 16  1  0
  9 17  1  0
 10 18  1  0
 11 19  1  0
 12 20  1  0
M  END
> <Name>
11107

> <Binding Energy>
-33.3267

> <Ligand Energy>
3.2546

> <Protein Energy>
-7801.1566

> <Complex Energy>
-7831.2288

> <Complex Entropy>
-31.4758

> <Protein Entropy>
-31.4717

> <Ligand Entropy>
-17.561

> <Entropic Energy>
17.5569

> <AbsoluteEnergy>
33.659

> <ConfNumber>
1

> <Ionization pH>
7.5

> <IonizationIndex>
1

> <MOL_NUMBER>
27

> <NumberOfIonizations>
1

> <NumberOfStereoisomers>
1

> <NumberOfTautomers>
1

> <PUBCHEM_ATOM_DEF_STEREO_COUNT>
0

> <PUBCHEM_ATOM_UDEF_STEREO_COUNT>
0

> <PUBCHEM_BOND_DEF_STEREO_COUNT>
0

> <PUBCHEM_BOND_UDEF_STEREO_COUNT>
0

> <PUBCHEM_CACTVS_TAUTO_COUNT>
1

> <PUBCHEM_COMPONENT_COUNT>
1

> <PUBCHEM_COMPOUND_CID>
11107

> <PUBCHEM_CONFORMER_DIVERSEORDER>
1
2

> <PUBCHEM_CONFORMER_ID>
00002B6300000001

> <PUBCHEM_CONFORMER_RMSD>
0.4

> <PUBCHEM_COORDINATE_TYPE>
2
5
10

> <PUBCHEM_EFFECTIVE_ROTOR_COUNT>
1

> <PUBCHEM_FEATURE_SELFOVERLAP>
20.297

> <PUBCHEM_HEAVY_ATOM_COUNT>
12

> <PUBCHEM_ISOTOPIC_ATOM_COUNT>
0

> <PUBCHEM_MMFF94_ENERGY>
40.1052

> <PUBCHEM_MMFF94_PARTIAL_CHARGES>
18
1 -0.62
10 0.16
11 0.16
12 0.16
13 0.15
14 0.15
15 0.15
16 0.15
17 0.15
18 0.15
19 0.15
2 -0.62
20 0.15
5 -0.15
6 -0.15
7 -0.15
8 -0.15
9 0.16

> <PUBCHEM_PHARMACOPHORE_FEATURES>
4
1 1 acceptor
1 2 acceptor
6 1 3 5 7 9 11 rings
6 2 4 6 8 10 12 rings

> <PUBCHEM_SHAPE_FINGERPRINT>
10608611 8 18410569587105433728
12932764 1 18410859862469854561
13380535 76 18410856563935250567
14144814 61 18410856542459920523
14325111 11 18410856563934893281
15442244 35 18194682562340463450
15536298 74 18342457041446816386
15669948 3 18130502036960136383
15775835 57 18410581686028066213
16945 1 18410575084663078918
17844478 74 17530971254520959445
18186145 218 18113053822429988310
19422 9 18410577287981548615
200 152 18342443864313209271
20645477 70 18261948553450907223
20871998 184 17988364874956527447
20871998 22 18050283674943795554
21501502 16 18410856563934756869
22445834 79 18335419023977269603
23402539 116 18060409197793216085
23402655 69 18409163286121771981
23463225 33 18410010996712304670
23552423 10 18334575775878518167
3248919 1 18410846664035334479
3312278 4 18338237171269177043
369184 2 18408040710735588625
528886 8 18408037424985406554
57096353 35 18266741457463280247
7364860 26 18272369772177297762
8030462 33 18336551598268305036

> <PUBCHEM_SHAPE_MULTIPOLES>
236.99
5.76
1.5
0.67
0
0
0
0
0
0
0
0
0
-0.5

> <PUBCHEM_SHAPE_SELFOVERLAP>
517.222

> <PUBCHEM_SHAPE_VOLUME>
126.8

> <RelativeEnergy>
0

> <StereoisomerIndex>
1

> <TautomerIndex>
1

> <POSE_NUMBER>
1

> <LibDockScore>
70.2423

> <HotSpots>
7.01,-0.53,1.54,A,78,7
6.01,1.67,2.54,A,83,9
7.21,1.27,-2.85,A,46,12

> <-In-Situ Starting Energy>
-939.495294

> <-In-Situ Final Energy>
28.0357844

> <In-Situ Gradient>
0.0008095219716

$$$$
11176
  SciTegic09142310043D

 26 25  0  0  0  0            999 V2000
    8.4629    9.5497   -3.1529 O   0  0  0  1  0  0
    6.9005   11.1708   -3.4227 O   0  0  0  1  0  0
    6.1188    9.5026   -0.9385 C   0  0  0  1  0  0
    7.3494   10.3320   -1.2308 C   0  0  0  1  0  0
    5.9662    8.2660   -1.8475 C   0  0  0  1  0  0
    6.0197    9.1295    0.5193 C   0  0  0  1  0  0
    7.5508   10.4039   -2.7235 C   0  0  0  1  0  0
    8.5607    9.3082   -4.5466 C   0  0  0  1  0  0
    9.1837    7.9428   -4.7864 C   0  0  0  1  0  0
    8.1849    6.8192   -4.8843 C   0  0  0  1  0  0
    5.3256   10.2268   -1.0859 H   0  0
    7.1888   11.3312   -0.8329 H   0  0
    8.2360    9.9144   -0.7791 H   0  0
    6.8789    7.7046   -1.9820 H   0  0
    5.7201    8.5664   -2.8605 H   0  0
    5.2082    7.5846   -1.4675 H   0  0
    6.5363    9.8831    1.1132 H   0  0
    6.4499    8.1513    0.7228 H   0  0
    4.9746    9.1017    0.8256 H   0  0
    9.2446   10.0452   -4.9577 H   0  0
    7.5792    9.3865   -5.0160 H   0  0
    9.8160    7.7296   -3.9305 H   0  0
    9.7837    7.9503   -5.6961 H   0  0
    7.4928    6.9773   -5.7085 H   0  0
    7.6568    6.7882   -3.9429 H   0  0
    8.6818    5.8603   -5.0069 H   0  0
  1  7  1  0
  1  8  1  0
  2  7  2  0
  3  4  1  0
  3  5  1  0
  3  6  1  0
  4  7  1  0
  8  9  1  0
  9 10  1  0
  3 11  1  0
  4 12  1  0
  4 13  1  0
  5 14  1  0
  5 15  1  0
  5 16  1  0
  6 17  1  0
  6 18  1  0
  6 19  1  0
  8 20  1  0
  8 21  1  0
  9 22  1  0
  9 23  1  0
 10 24  1  0
 10 25  1  0
 10 26  1  0
M  END
> <Name>
11176

> <Binding Energy>
-39.5898

> <Ligand Energy>
-2.7718

> <Protein Energy>
-7801.1566

> <Complex Energy>
-7843.5183

> <Complex Entropy>
-31.476

> <Protein Entropy>
-31.4717

> <Ligand Entropy>
-17.4459

> <Entropic Energy>
17.4416

> <AbsoluteEnergy>
6.19924

> <ConfNumber>
7

> <IonizationIndex>
1

> <MOL_NUMBER>
29

> <NumberOfIonizations>
1

> <NumberOfStereoisomers>
1

> <NumberOfTautomers>
1

> <PUBCHEM_ATOM_DEF_STEREO_COUNT>
0

> <PUBCHEM_ATOM_UDEF_STEREO_COUNT>
0

> <PUBCHEM_BOND_DEF_STEREO_COUNT>
0

> <PUBCHEM_BOND_UDEF_STEREO_COUNT>
0

> <PUBCHEM_CACTVS_TAUTO_COUNT>
1

> <PUBCHEM_COMPONENT_COUNT>
1

> <PUBCHEM_COMPOUND_CID>
11176

> <PUBCHEM_CONFORMER_DIVERSEORDER>
1
22
49
10
48
14
50
13
40
9
36
5
56
24
37
42
45
6
43
11
51
44
8
57
47
2
39
21
35
41
25
4
7
46
31
52
19
34
3
23
38
54
16
18
12
20
30
33
17
26
15
55
53
32
27
29
28

> <PUBCHEM_CONFORMER_ID>
00002BA800000001

> <PUBCHEM_CONFORMER_RMSD>
0.6

> <PUBCHEM_COORDINATE_TYPE>
2
5
10

> <PUBCHEM_EFFECTIVE_ROTOR_COUNT>
5

> <PUBCHEM_FEATURE_SELFOVERLAP>
15.223

> <PUBCHEM_HEAVY_ATOM_COUNT>
10

> <PUBCHEM_ISOTOPIC_ATOM_COUNT>
0

> <PUBCHEM_MMFF94_ENERGY>
5.9187

> <PUBCHEM_MMFF94_PARTIAL_CHARGES>
5
1 -0.43
2 -0.57
4 0.06
7 0.66
8 0.28

> <PUBCHEM_PHARMACOPHORE_FEATURES>
3
1 10 hydrophobe
1 2 acceptor
3 3 5 6 hydrophobe

> <PUBCHEM_SHAPE_FINGERPRINT>
10219947 1 17561083605050585085
10857977 72 18343291557428623072
11062470 55 17418094325787978387
12897270 3 8286202751417341479
12932764 1 18060414707671689421
14251717 144 18335417980717227163
14252887 29 18131081427985153951
14390081 3 9943804482709200183
20201158 50 18040438780302509363
20281407 28 18333454231379652599
20645477 70 18186519925740021239
20653085 51 9799110998598107710
20871998 22 18270687450319437254
21119208 17 11674874494215556003
21293036 1 11891337551609552855
21501925 9 18200870781522597085
23380061 451 18131069307624186146
29004967 10 18409163294869760396
3248919 1 17676497137453048013
581208 293 18408321111601483006

> <PUBCHEM_SHAPE_MULTIPOLES>
194.06
6.15
1.41
0.9
6.07
0.11
0
1.68
1.31
-0.65
0.13
-0.45
-0.07
-0.01

> <PUBCHEM_SHAPE_SELFOVERLAP>
354.147

> <PUBCHEM_SHAPE_VOLUME>
124.5

> <RelativeEnergy>
0.610368

> <StereoisomerIndex>
1

> <TautomerIndex>
1

> <POSE_NUMBER>
1

> <LibDockScore>
79.9671

> <HotSpots>
5.81,8.67,-0.66,A,61,5
6.21,10.67,0.94,A,74,6
8.41,8.07,-4.86,A,38,9

> <-In-Situ Starting Energy>
-1067.57129

> <-In-Situ Final Energy>
13.1893455

> <In-Situ Gradient>
0.0008256576536

$$$$
115161
  SciTegic09142310043D

 87 93  0  0  0  0            999 V2000
   14.6442   -1.1752  -17.7663 O   0  0  0  1  0  0
   16.3791    0.1936  -18.7942 O   0  0  0  1  0  0
   13.5751    2.8055  -14.2899 O   0  0  0  1  0  0
   16.6468   -0.1475  -12.5394 O   0  0  0  1  0  0
   16.8464   -2.7527  -18.9475 O   0  0  0  1  0  0
   19.7504   -2.5769  -17.5494 O   0  0  0  1  0  0
   13.9908    4.2452  -12.6253 O   0  0  0  1  0  0
   11.2489    4.4857   -9.5327 O   0  0  0  1  0  0
   17.0319    1.9197  -14.3964 N   0  3  1  1  0  0
   11.7618    5.5014  -11.6542 N   0  0  0  1  0  0
   15.6987   -0.2495  -14.7584 C   0  0  1  1  0  0
   15.7057   -1.5432  -15.6383 C   0  0  1  1  0  0
   16.9368    0.6038  -15.0782 C   0  0  1  1  0  0
   14.6223    0.7833  -15.1368 C   0  0  2  1  0  0
   16.6525    0.9883  -16.5293 C   0  0  1  1  0  0
   15.8817   -1.3767  -17.1549 C   0  0  2  1  0  0
   16.8337   -0.2036  -17.5077 C   0  0  1  1  0  0
   15.1877    1.4591  -16.4080 C   0  0  0  1  0  0
   14.4852    1.7641  -13.9338 C   0  0  1  1  0  0
   15.5688   -0.6880  -13.2803 C   0  0  2  1  0  0
   16.8364   -2.5316  -15.2736 C   0  0  0  1  0  0
   17.5494   -2.9005  -16.5773 C   0  0  1  1  0  0
   16.4334   -2.7337  -17.5962 C   0  0  2  1  0  0
   18.3151   -0.6736  -17.6461 C   0  0  0  1  0  0
   15.8876    2.3437  -13.5637 C   0  0  0  1  0  0
   18.7229   -1.9226  -16.8322 C   0  0  2  1  0  0
   13.8512    1.0335  -12.7208 C   0  0  0  1  0  0
   14.1908   -0.4352  -12.6845 C   0  0  0  1  0  0
   18.3296    2.1547  -13.7521 C   0  0  0  1  0  0
   18.6181    3.6455  -13.6041 C   0  0  0  1  0  0
   16.5871   -0.1603  -11.1273 C   0  0  0  1  0  0
   17.2754   -4.0105  -19.4239 C   0  0  0  1  0  0
   13.1872    3.6503  -13.3316 C   0  0  0  1  0  0
   20.5831   -3.4532  -16.8143 C   0  0  0  1  0  0
   11.7192    3.6787  -13.2255 C   0  0  0  1  0  0
   11.0719    4.5955  -12.3987 C   0  0  0  1  0  0
   10.9568    2.7078  -13.8754 C   0  0  0  1  0  0
    9.6879    4.5843  -12.3205 C   0  0  0  1  0  0
    9.5731    2.6935  -13.7768 C   0  0  0  1  0  0
    8.9337    3.6463  -13.0055 C   0  0  0  1  0  0
   11.8609    5.4089  -10.3090 C   0  0  0  1  0  0
   12.7407    6.4028   -9.5539 C   0  0  0  1  0  0
   14.8841   -0.9879  -18.6720 H   0  0
   16.9328    0.8798  -19.1488 H   0  0
   10.7042    3.8822  -10.0205 H   0  0
   17.0085    2.5877  -15.1535 H   0  0
   14.7566   -2.0606  -15.4836 H   0  0
   17.8709    0.0554  -14.9667 H   0  0
   13.6623    0.3101  -15.3491 H   0  0
   17.2970    1.8059  -16.8578 H   0  0
   14.6236    1.1600  -17.2766 H   0  0
   15.1083    2.5452  -16.3513 H   0  0
   15.6071   -1.7571  -13.2538 H   0  0
   17.5476   -2.1091  -14.5698 H   0  0
   16.4124   -3.4257  -14.8139 H   0  0
   17.8973   -3.9312  -16.5364 H   0  0
   15.6688   -3.4986  -17.4458 H   0  0
   19.0080    0.1444  -17.4490 H   0  0
   18.5002   -0.9435  -18.6870 H   0  0
   16.1232    2.1498  -12.5192 H   0  0
   15.8841    3.4264  -13.6250 H   0  0
   19.1430   -1.5867  -15.8837 H   0  0
   12.7656    1.0853  -12.7506 H   0  0
   14.1375    1.5188  -11.7874 H   0  0
   14.0981   -0.8260  -11.6719 H   0  0
   13.4578   -0.9851  -13.2778 H   0  0
   19.1100    1.7223  -14.3797 H   0  0
   18.3627    1.6407  -12.7907 H   0  0
   17.9610    4.1100  -12.8689 H   0  0
   18.4887    4.1835  -14.5409 H   0  0
   19.6470    3.7883  -13.2807 H   0  0
   16.1904   -1.0991  -10.7603 H   0  0
   15.9519    0.6435  -10.7574 H   0  0
   17.5853   -0.0196  -10.7125 H   0  0
   16.4782   -4.7494  -19.3301 H   0  0
   18.1484   -4.3573  -18.8697 H   0  0
   17.5507   -3.9320  -20.4753 H   0  0
   20.0189   -4.2939  -16.4105 H   0  0
   21.0684   -2.9255  -15.9927 H   0  0
   21.3591   -3.8542  -17.4663 H   0  0
   11.4335    1.9304  -14.4514 H   0  0
    9.2032    5.3254  -11.7169 H   0  0
    8.9955    1.9483  -14.3038 H   0  0
    7.8553    3.6602  -12.9371 H   0  0
   13.3728    5.8737   -8.8410 H   0  0
   12.1207    7.1188   -9.0145 H   0  0
   13.3803    6.9360  -10.2557 H   0  0
  1 16  1  0
  2 17  1  0
  3 19  1  0
  3 33  1  0
  4 20  1  0
  4 31  1  0
  5 23  1  0
  5 32  1  0
  6 26  1  0
  6 34  1  0
  7 33  2  0
  8 41  1  0
  9 13  1  0
  9 25  1  0
  9 29  1  0
 10 36  1  0
 10 41  2  0
 11 12  1  0
 11 13  1  0
 11 14  1  0
 11 20  1  0
 12 16  1  0
 12 21  1  0
 13 15  1  0
 14 18  1  0
 14 19  1  0
 15 17  1  0
 15 18  1  0
 16 17  1  0
 16 23  1  0
 17 24  1  0
 19 25  1  0
 19 27  1  0
 20 28  1  0
 21 22  1  0
 22 23  1  0
 22 26  1  0
 24 26  1  0
 27 28  1  0
 29 30  1  0
 33 35  1  0
 35 36  2  0
 35 37  1  0
 36 38  1  0
 37 39  2  0
 38 40  2  0
 39 40  1  0
 41 42  1  0
  1 43  1  0
  2 44  1  0
  8 45  1  0
  9 46  1  0
 12 47  1  0
 13 48  1  0
 14 49  1  0
 15 50  1  0
 18 51  1  0
 18 52  1  0
 20 53  1  0
 21 54  1  0
 21 55  1  0
 22 56  1  0
 23 57  1  0
 24 58  1  0
 24 59  1  0
 25 60  1  0
 25 61  1  0
 26 62  1  0
 27 63  1  0
 27 64  1  0
 28 65  1  0
 28 66  1  0
 29 67  1  0
 29 68  1  0
 30 69  1  0
 30 70  1  0
 30 71  1  0
 31 72  1  0
 31 73  1  0
 31 74  1  0
 32 75  1  0
 32 76  1  0
 32 77  1  0
 34 78  1  0
 34 79  1  0
 34 80  1  0
 37 81  1  0
 38 82  1  0
 39 83  1  0
 40 84  1  0
 42 85  1  0
 42 86  1  0
 42 87  1  0
M  CHG  1   9   1
M  END
> <Name>
115161

> <Binding Energy>
-35.7132

> <Ligand Energy>
124.0706

> <Protein Energy>
-7801.1566

> <Complex Energy>
-7712.7992

> <Complex Entropy>
-31.4959

> <Protein Entropy>
-31.4717

> <Ligand Entropy>
-21.0255

> <Entropic Energy>
21.0013

> <AbsoluteEnergy>
123.586

> <ConfNumber>
88

> <Ionization pH>
7.5

> <IonizationIndex>
1

> <MOL_NUMBER>
33

> <NumberOfIonizations>
1

> <NumberOfStereoisomers>
2

> <NumberOfTautomers>
3

> <PUBCHEM_ATOM_DEF_STEREO_COUNT>
9

> <PUBCHEM_ATOM_UDEF_STEREO_COUNT>
3

> <PUBCHEM_BOND_DEF_STEREO_COUNT>
0

> <PUBCHEM_BOND_UDEF_STEREO_COUNT>
0

> <PUBCHEM_CACTVS_TAUTO_COUNT>
3

> <PUBCHEM_COMPONENT_COUNT>
1

> <PUBCHEM_COMPOUND_CID>
115161

> <PUBCHEM_CONFORMER_DIVERSEORDER>
1
9
2
11
4
8
3
12
7
6
5
10

> <PUBCHEM_CONFORMER_ID>
0001C1D900000001

> <PUBCHEM_CONFORMER_RMSD>
1.2

> <PUBCHEM_COORDINATE_TYPE>
2
5
10

> <PUBCHEM_EFFECTIVE_ROTOR_COUNT>
11

> <PUBCHEM_FEATURE_SELFOVERLAP>
82.739

> <PUBCHEM_HEAVY_ATOM_COUNT>
42

> <PUBCHEM_ISOTOPIC_ATOM_COUNT>
0

> <PUBCHEM_MMFF94_ENERGY>
219.4788

> <PUBCHEM_MMFF94_PARTIAL_CHARGES>
38
1 -0.68
10 -0.55
13 0.27
16 0.28
17 0.28
19 0.28
2 -0.68
20 0.28
23 0.28
25 0.27
26 0.28
29 0.27
3 -0.43
31 0.28
32 0.28
33 0.63
34 0.28
35 0.09
36 0.12
37 -0.15
38 -0.15
39 -0.15
4 -0.56
40 -0.15
41 0.57
42 0.06
5 -0.56
6 -0.56
63 0.4
64 0.4
7 -0.57
79 0.15
8 -0.57
80 0.15
81 0.15
82 0.37
83 0.15
9 -0.81

> <PUBCHEM_PHARMACOPHORE_FEATURES>
16
1 1 acceptor
1 1 donor
1 10 donor
1 2 acceptor
1 2 donor
1 4 acceptor
1 5 acceptor
1 6 acceptor
1 7 acceptor
1 8 acceptor
1 9 cation
6 11 14 19 20 27 28 rings
6 35 36 37 38 39 40 rings
8 11 12 13 14 15 16 17 18 rings
8 12 16 17 21 22 23 24 26 rings
8 9 11 13 14 15 18 19 25 rings

> <PUBCHEM_SHAPE_FINGERPRINT>
11115154 58 17767100370833833183
12925494 130 18337110198058782768
13811026 1 18261111924313412803
15082195 135 18127389358755829476
15357212 105 18044118915274044036
15361156 5 18410582790900239870
15513586 35 17910686676266847072
16112460 7 18409729552444443504
17980427 23 18262531282013628637
18393751 57 18411144623713868139
21033648 144 18260542351515094580
21033648 29 17385992950044296244
21756936 100 18408602535550497186
22122407 14 18337682927415178672
23559900 14 18410014317629522546
249057 3 18411702076678628998
2838139 119 18341051817951722256
4144715 1 18261127296159413138
469060 322 15647608003595081498
5104073 3 18114741633941953746
6086070 43 17345753131381973560

> <PUBCHEM_SHAPE_MULTIPOLES>
807.42
15.47
4.7
1.98
20.73
2.62
-0.32
9.02
-0.35
0.64
0.75
-2.71
-2
-0.55

> <PUBCHEM_SHAPE_SELFOVERLAP>
1778.377

> <PUBCHEM_SHAPE_VOLUME>
428.2

> <RelativeEnergy>
17.426

> <StereoisomerIndex>
1

> <TautomerIndex>
2

> <POSE_NUMBER>
1

> <LibDockScore>
81.6869

> <HotSpots>
18.61,6.27,-14.05,A,22,30
11.21,4.87,-14.65,A,18,37
9.21,3.67,-12.86,A,26,38

> <-In-Situ Starting Energy>
-28712.2445

> <-In-Situ Final Energy>
-96.6058907

> <In-Situ Gradient>
0.0009656987281

$$$$
11520
  SciTegic09142310043D

 24 23  0  0  0  0            999 V2000
    6.6410   11.7829   -2.7310 O   0  0  0  1  0  0
    8.1439    9.9676   -3.2812 C   0  0  0  1  0  0
    6.8526   10.3798   -2.5759 C   0  0  1  1  0  0
    8.3433    8.4779   -3.4200 C   0  0  0  1  0  0
    6.9620   10.0091   -1.0921 C   0  0  0  1  0  0
    7.9478    7.9931   -4.7950 C   0  0  0  1  0  0
    6.0435   10.8209   -0.2033 C   0  0  0  1  0  0
    8.2480    6.5224   -4.9881 C   0  0  0  1  0  0
    6.4505   11.9933   -3.6439 H   0  0
    8.9947   10.3716   -2.7321 H   0  0
    8.1655   10.3632   -4.2867 H   0  0
    6.0079    9.8257   -2.9983 H   0  0
    7.7572    7.9460   -2.6744 H   0  0
    9.4015    8.2622   -3.2672 H   0  0
    7.9811   10.1528   -0.7445 H   0  0
    6.7414    8.9510   -0.9578 H   0  0
    8.4996    8.5553   -5.5448 H   0  0
    6.8844    8.1861   -4.9416 H   0  0
    5.0120   10.6886   -0.5208 H   0  0
    6.3042   11.8781   -0.2582 H   0  0
    6.1341   10.5049    0.8361 H   0  0
    7.8962    5.9136   -4.1603 H   0  0
    9.3142    6.3422   -5.1269 H   0  0
    7.7008    6.2073   -5.8608 H   0  0
  1  3  1  0
  2  3  1  0
  2  4  1  0
  3  5  1  0
  4  6  1  0
  5  7  1  0
  6  8  1  0
  1  9  1  0
  2 10  1  0
  2 11  1  0
  3 12  1  0
  4 13  1  0
  4 14  1  0
  5 15  1  0
  5 16  1  0
  6 17  1  0
  6 18  1  0
  7 19  1  0
  7 20  1  0
  7 21  1  0
  8 22  1  0
  8 23  1  0
  8 24  1  0
M  END
> <Name>
11520

> <Binding Energy>
-7.5088

> <Ligand Energy>
4.6642

> <Protein Energy>
-7801.1566

> <Complex Energy>
-7804.0013

> <Complex Entropy>
-31.4752

> <Protein Entropy>
-31.4717

> <Ligand Entropy>
-16.9583

> <Entropic Energy>
16.9548

> <AbsoluteEnergy>
6.18244

> <ConfNumber>
40

> <IonizationIndex>
1

> <MOL_NUMBER>
37

> <NumberOfIonizations>
1

> <NumberOfStereoisomers>
1

> <NumberOfTautomers>
1

> <PUBCHEM_ATOM_DEF_STEREO_COUNT>
0

> <PUBCHEM_ATOM_UDEF_STEREO_COUNT>
1

> <PUBCHEM_BOND_DEF_STEREO_COUNT>
0

> <PUBCHEM_BOND_UDEF_STEREO_COUNT>
0

> <PUBCHEM_CACTVS_TAUTO_COUNT>
1

> <PUBCHEM_COMPONENT_COUNT>
1

> <PUBCHEM_COMPOUND_CID>
11520

> <PUBCHEM_CONFORMER_DIVERSEORDER>
1
41
28
50
25
44
22
3
37
49
39
38
23
52
24
8
46
6
35
19
53
12
48
29
7
5
45
17
15
47
21
16
11
31
43
51
36
9
42
4
13
54
40
34
27
10
30
32
26
33
2
20
14
18

> <PUBCHEM_CONFORMER_ID>
00002D0000000001

> <PUBCHEM_CONFORMER_RMSD>
0.6

> <PUBCHEM_COORDINATE_TYPE>
2
5
10

> <PUBCHEM_EFFECTIVE_ROTOR_COUNT>
4

> <PUBCHEM_FEATURE_SELFOVERLAP>
20.297

> <PUBCHEM_HEAVY_ATOM_COUNT>
8

> <PUBCHEM_ISOTOPIC_ATOM_COUNT>
0

> <PUBCHEM_MMFF94_ENERGY>
1.4981

> <PUBCHEM_MMFF94_PARTIAL_CHARGES>
3
1 -0.68
24 0.4
3 0.28

> <PUBCHEM_PHARMACOPHORE_FEATURES>
4
1 1 acceptor
1 1 donor
1 7 hydrophobe
1 8 hydrophobe

> <PUBCHEM_SHAPE_FINGERPRINT>
10219947 1 18272090482959308134
11062470 55 17060337422379990091
12932764 1 16950832691804795547
14325111 11 18342175591823366519
18342897 14 18334296452733326225
29004967 10 18333453127689206122
3248919 1 13973972046990419539
5460574 1 8214142958219118282

> <PUBCHEM_SHAPE_MULTIPOLES>
158.77
6.62
0.94
0.66
1.88
0.13
-0.01
-0.04
-0.52
-0.2
0.09
0
0.01
-0.11

> <PUBCHEM_SHAPE_SELFOVERLAP>
277.023

> <PUBCHEM_SHAPE_VOLUME>
105.7

> <RelativeEnergy>
3.56605

> <StereoisomerIndex>
1

> <TautomerIndex>
1

> <POSE_NUMBER>
1

> <LibDockScore>
68.6284

> <HotSpots>
8.01,10.07,-2.25,A,50,4
5.81,9.67,0.14,A,68,5
7.21,9.27,-3.25,A,45,6

> <-In-Situ Starting Energy>
-212.801073

> <-In-Situ Final Energy>
15.7450269

> <In-Situ Gradient>
0.0005818401988

$$$$
11820
  SciTegic09142310043D

 21 22  0  0  0  0            999 V2000
    6.2937    1.1585    3.3303 O   0  0  0  1  0  0
    6.8197    2.1623    1.3583 N   0  0  0  1  0  0
    7.0428    2.0268    0.0034 C   0  0  0  1  0  0
    6.8392    0.7921   -0.6236 C   0  0  0  1  0  0
    6.4848   -0.3797    0.1747 C   0  0  0  1  0  0
    7.4849    3.0973   -0.7733 C   0  0  0  1  0  0
    6.4932    1.0872    2.1264 C   0  0  0  1  0  0
    7.0172    0.6576   -1.9931 C   0  0  0  1  0  0
    6.3513   -0.2404    1.5036 C   0  0  0  1  0  0
    6.9284    3.4505    2.0712 C   0  0  0  1  0  0
    7.7300    2.9378   -2.1299 C   0  0  0  1  0  0
    7.4938    1.7177   -2.7414 C   0  0  0  1  0  0
    6.3500   -1.3298   -0.3103 H   0  0
    7.6598    4.0688   -0.3439 H   0  0
    6.7988   -0.2746   -2.4871 H   0  0
    6.1383   -1.0768    2.1372 H   0  0
    6.6182    4.2828    1.4509 H   0  0
    7.9562    3.6089    2.3973 H   0  0
    6.2813    3.4991    2.9496 H   0  0
    8.0877    3.7718   -2.7147 H   0  0
    7.6792    1.5811   -3.7947 H   0  0
  1  7  2  0
  2  3  1  0
  2  7  1  0
  2 10  1  0
  3  4  2  0
  3  6  1  0
  4  5  1  0
  4  8  1  0
  5  9  2  0
  6 11  2  0
  7  9  1  0
  8 12  2  0
 11 12  1  0
  5 13  1  0
  6 14  1  0
  8 15  1  0
  9 16  1  0
 10 17  1  0
 10 18  1  0
 10 19  1  0
 11 20  1  0
 12 21  1  0
M  END
> <Name>
11820

> <Binding Energy>
-18.3713

> <Ligand Energy>
0.8053

> <Protein Energy>
-7801.1566

> <Complex Energy>
-7818.7226

> <Complex Entropy>
-31.4759

> <Protein Entropy>
-31.4717

> <Ligand Entropy>
-17.5303

> <Entropic Energy>
17.5261

> <AbsoluteEnergy>
21.7188

> <ConfNumber>
1

> <Ionization pH>
7.5

> <IonizationIndex>
1

> <MOL_NUMBER>
38

> <NumberOfIonizations>
1

> <NumberOfStereoisomers>
1

> <NumberOfTautomers>
1

> <PUBCHEM_ATOM_DEF_STEREO_COUNT>
0

> <PUBCHEM_ATOM_UDEF_STEREO_COUNT>
0

> <PUBCHEM_BOND_DEF_STEREO_COUNT>
0

> <PUBCHEM_BOND_UDEF_STEREO_COUNT>
0

> <PUBCHEM_CACTVS_TAUTO_COUNT>
1

> <PUBCHEM_COMPONENT_COUNT>
1

> <PUBCHEM_COMPOUND_CID>
11820

> <PUBCHEM_CONFORMER_DIVERSEORDER>
1

> <PUBCHEM_CONFORMER_ID>
00002E2C00000001

> <PUBCHEM_CONFORMER_RMSD>
0.4

> <PUBCHEM_COORDINATE_TYPE>
2
5
10

> <PUBCHEM_EFFECTIVE_ROTOR_COUNT>
0

> <PUBCHEM_FEATURE_SELFOVERLAP>
15.247

> <PUBCHEM_HEAVY_ATOM_COUNT>
12

> <PUBCHEM_ISOTOPIC_ATOM_COUNT>
0

> <PUBCHEM_MMFF94_ENERGY>
34.5172

> <PUBCHEM_MMFF94_PARTIAL_CHARGES>
18
1 -0.57
10 0.3
11 -0.15
12 -0.15
13 0.15
14 0.15
15 0.15
16 0.15
2 -0.48
20 0.15
21 0.15
3 0.12
4 0.03
5 -0.18
6 -0.15
7 0.62
8 -0.15
9 -0.14

> <PUBCHEM_PHARMACOPHORE_FEATURES>
3
1 1 acceptor
6 2 3 4 5 7 9 rings
6 3 4 6 8 11 12 rings

> <PUBCHEM_SHAPE_FINGERPRINT>
10967382 1 18410575101938004067
11206711 2 18408603677663274725
11471102 20 18338513144672155013
12032990 46 18411708677120346174
12382932 28 18341046324524962144
12524768 44 18197783206500328111
12897270 3 18410291440843928415
13380535 76 18409444791121146323
14325111 11 18338797926225414529
16945 1 18410855464602600581
17844478 74 17968387813915810801
17990270 104 18410573963697921571
193761 8 17762338011572216228
20201158 50 18409727361388110607
20588541 1 18408888412351247079
21040471 1 17834113426258952864
21501502 16 18339078173031051323
2334 1 17978229692260628869
23402655 69 18268413660975096165
23463225 33 18335135371826426242
23552423 10 18335421326221937533
23559900 14 18342465842404655004
241688 4 17977948981809202760
2748010 2 18049724314880855093
5084963 1 18130230487515436715
528886 8 18411132549948544657
53812653 166 18342172263049678048
63268167 104 18338518534539697905
66348 1 18411419479575925583
7364860 26 18271524213143970406
8809292 202 18187651365727414595

> <PUBCHEM_SHAPE_MULTIPOLES>
236.1
4.13
2.13
0.6
0.17
0.27
0
0.28
0
-0.44
0
0.03
-0.01
0

> <PUBCHEM_SHAPE_SELFOVERLAP>
510.721

> <PUBCHEM_SHAPE_VOLUME>
129.8

> <RelativeEnergy>
0

> <StereoisomerIndex>
1

> <TautomerIndex>
1

> <POSE_NUMBER>
1

> <LibDockScore>
73.4371

> <HotSpots>
7.61,2.87,-1.05,A,58,6
7.01,-0.53,1.54,A,78,9
7.21,1.27,-2.85,A,46,12

> <-In-Situ Starting Energy>
-225.943282

> <-In-Situ Final Energy>
21.8213247

> <In-Situ Gradient>
0.0009556780565

$$$$
119133
  SciTegic09142310043D

 29 29  0  0  0  0            999 V2000
    5.9795   11.3390   -0.7555 O   0  0  0  1  0  0
    6.7014   11.8320   -2.8317 O   0  0  0  1  0  0
    6.8411    8.4944   -4.6667 O   0  0  0  1  0  0
    8.2455    6.0917   -5.2690 O   0  0  0  1  0  0
    7.8727    9.1848   -2.7687 N   0  0  0  1  0  0
    6.6240    9.5259   -2.1036 C   0  0  1  1  0  0
    6.5917    9.1128   -0.6447 C   0  0  0  1  0  0
    5.8251   10.1951    0.0704 C   0  0  0  1  0  0
    6.4575   11.0233   -1.9503 C   0  0  0  1  0  0
    7.8482    8.6204   -3.9918 C   0  0  0  1  0  0
    9.2148    8.1245   -4.4680 C   0  5  0  1  0  0
   10.5444    5.8258   -4.7823 C   0  0  0  1  0  0
    9.2391    6.6500   -4.9301 C   0  0  0  1  0  0
   11.4569    5.8365   -6.0272 C   0  0  0  1  0  0
   12.8154    5.1816   -5.7452 C   0  0  0  1  0  0
    8.7436    9.3736   -2.3177 H   0  0
    5.7907    9.1130   -2.6621 H   0  0
    6.1690    8.1228   -0.4736 H   0  0
    7.5963    9.1801   -0.2545 H   0  0
    6.2345   10.4106    1.0565 H   0  0
    4.7713    9.9348    0.1467 H   0  0
    9.8743    8.2146   -3.6066 H   0  0
   11.0904    6.1711   -3.9071 H   0  0
   10.2617    4.7978   -4.5544 H   0  0
   11.6121    6.8490   -6.3949 H   0  0
   11.0034    5.3102   -6.8617 H   0  0
   12.6971    4.1284   -5.4891 H   0  0
   13.3347    5.6651   -4.9177 H   0  0
   13.4646    5.2391   -6.6197 H   0  0
  1  8  1  0
  1  9  1  0
  2  9  2  0
  3 10  2  0
  4 13  2  0
  5  6  1  0
  5 10  1  0
  6  7  1  0
  6  9  1  0
  7  8  1  0
 10 11  1  0
 11 13  1  0
 12 13  1  0
 12 14  1  0
 14 15  1  0
  5 16  1  0
  6 17  1  0
  7 18  1  0
  7 19  1  0
  8 20  1  0
  8 21  1  0
 11 22  1  0
 12 23  1  0
 12 24  1  0
 14 25  1  0
 14 26  1  0
 15 27  1  0
 15 28  1  0
 15 29  1  0
M  CHG  1  11  -1
M  END
> <Name>
119133

> <Binding Energy>
-61.0762

> <Ligand Energy>
-13.138

> <Protein Energy>
-7801.1566

> <Complex Energy>
-7875.3708

> <Complex Entropy>
-31.4781

> <Protein Entropy>
-31.4717

> <Ligand Entropy>
-18.5829

> <Entropic Energy>
18.5765

> <AbsoluteEnergy>
17.5451

> <ConfNumber>
48

> <Ionization pH>
7.3_D

> <IonizationIndex>
2

> <MOL_NUMBER>
40

> <NumberOfIonizations>
2

> <NumberOfStereoisomers>
1

> <NumberOfTautomers>
1

> <PUBCHEM_ATOM_DEF_STEREO_COUNT>
0

> <PUBCHEM_ATOM_UDEF_STEREO_COUNT>
1

> <PUBCHEM_BOND_DEF_STEREO_COUNT>
0

> <PUBCHEM_BOND_UDEF_STEREO_COUNT>
0

> <PUBCHEM_CACTVS_TAUTO_COUNT>
16

> <PUBCHEM_COMPONENT_COUNT>
1

> <PUBCHEM_COMPOUND_CID>
119133

> <PUBCHEM_CONFORMER_DIVERSEORDER>
1
115
215
199
146
50
102
198
77
35
180
40
32
167
15
209
170
156
242
6
83
238
236
116
178
125
191
14
227
18
44
251
62
226
123
222
55
244
127
259
185
122
16
210
51
233
73
128
219
56
197
152
124
258
228
224
179
41
27
21
195
11
140
19
112
147
108
214
230
193
58
158
241
2
70
182
96
248
175
143
136
231
23
148
119
250
101
160
135
144
36
196
43
8
31
121
49
220
243
109
184
246
10
239
24
120
52
132
202
130
85
149
114
217
203
150
30
93
223
47
78
254
145
67
45
34
86
142
208
153
155
207
212
75
42
151
249
26
247
177
64
181
107
225
59
221
234
240
173
17
9
260
3
91
97
205
134
137
76
126
99
192
29
33
218
87
25
256
7
68
245
106
66
37
204
82
80
81
103
131
163
46
216
84
118
54
253
174
200
48
255
186
22
129
5
113
211
189
194
213
20
157
159
154
232
171
53
138
235
12
183
89
162
252
172
95
98
237
161
206
111
13
188
63
39
139
60
61
168
92
74
187
117
133
65
94
165
100
69
169
229
88
257
164
90
38
104
79
141
190
176
110
28
57
105
72
4
166
201
71

> <PUBCHEM_CONFORMER_ID>
0001D15D00000001

> <PUBCHEM_CONFORMER_RMSD>
0.8

> <PUBCHEM_COORDINATE_TYPE>
2
5
10

> <PUBCHEM_EFFECTIVE_ROTOR_COUNT>
6.8

> <PUBCHEM_FEATURE_SELFOVERLAP>
35.522

> <PUBCHEM_HEAVY_ATOM_COUNT>
15

> <PUBCHEM_ISOTOPIC_ATOM_COUNT>
0

> <PUBCHEM_MMFF94_ENERGY>
13.8663

> <PUBCHEM_MMFF94_PARTIAL_CHARGES>
13
1 -0.43
10 0.57
11 0.12
12 0.06
13 0.45
2 -0.57
21 0.37
3 -0.57
4 -0.57
5 -0.73
6 0.36
8 0.28
9 0.66

> <PUBCHEM_PHARMACOPHORE_FEATURES>
7
1 11 anion
1 15 hydrophobe
1 2 acceptor
1 3 acceptor
1 4 acceptor
1 5 donor
5 1 6 7 8 9 rings

> <PUBCHEM_SHAPE_FINGERPRINT>
10354089 29 11025801989750499694
11287383 113 18334015029675849411
114248 4 18408603669331711615
11543360 7 18341611550995627393
12251169 10 9367341526966085272
12670543 26 18341887447432391005
13836976 161 18130791161669155958
14366163 111 18186795868745899169
15477762 27 18272656701899767502
15885798 251 14333408952209467107
17834072 33 18342735243563515261
17834072 8 18187085040019057407
1813 80 14764634126614556369
18186145 218 17822010908408693536
18222031 100 14476962306854625777
19784866 240 17703518679593894406
200 152 17917714578239052810
20281475 54 17632578245146163875
20369508 70 17060048255195921960
20645477 70 18343304730146373006
20871999 31 18341892953285285993
21119208 17 18408605855158900367
212847 35 15647050460778320620
22485316 2 17703503376498564631
23402539 116 18059574642608415161
23402655 69 18335707143542511756
23557571 272 17532669007579344395
23559900 14 18341328985092137392
2871803 45 18412264999823250278
29717793 49 17703513216073669141
3004659 81 18272931592190680870
3060560 45 18333452028235938366
4028521 119 17822289063687031341
42 15 10447932771404413677
465052 167 16702301286838469749
4990 188 18260828189772246195
522135 26 18272368667917080596
5374978 207 9007057967718499015
58051976 378 18272656748849054094
6327066 14 17977947123002142900
960060 61 17989202668219459037

> <PUBCHEM_SHAPE_MULTIPOLES>
280.23
11.78
1.34
1
11.58
0.06
-0.34
-0.67
4.97
-1.42
0.16
0.11
-0.06
0.13

> <PUBCHEM_SHAPE_SELFOVERLAP>
556.95

> <PUBCHEM_SHAPE_VOLUME>
166.9

> <RelativeEnergy>
1.80351

> <StereoisomerIndex>
1

> <TautomerIndex>
1

> <POSE_NUMBER>
1

> <LibDockScore>
98.3718

> <HotSpots>
6.81,8.27,-5.05,P,59,3
5.81,8.67,-0.66,A,61,8
10.81,8.27,-8.46,A,35,14

> <-In-Situ Starting Energy>
-653.638457

> <-In-Situ Final Energy>
38.2827791

> <In-Situ Gradient>
0.0007744752647

$$$$
12020
  SciTegic09142310043D

 16 15  0  0  0  0            999 V2000
    8.9698   10.0588   -3.1986 O   0  0  0  1  0  0
    6.9842    9.1201   -4.2791 C   0  0  0  1  0  0
    7.5658    9.9311   -3.1232 C   0  0  1  1  0  0
    7.8289    7.9253   -4.7433 C   0  0  0  1  0  0
    7.1004    9.4395   -1.7842 C   0  0  0  1  0  0
    6.6760   10.2092   -0.7677 C   0  0  0  1  0  0
    9.3835    9.2308   -3.0056 H   0  0
    6.8520    9.8031   -5.1011 H   0  0
    5.9837    8.7855   -4.0225 H   0  0
    7.1705   10.9418   -3.2256 H   0  0
    7.9707    7.2210   -3.9341 H   0  0
    8.7977    8.2273   -5.1415 H   0  0
    7.3314    7.3727   -5.5361 H   0  0
    6.9833    8.3768   -1.7272 H   0  0
    6.7176   11.2802   -0.8183 H   0  0
    6.2863    9.7769    0.1357 H   0  0
  1  3  1  0
  2  3  1  0
  2  4  1  0
  3  5  1  0
  5  6  2  0
  1  7  1  0
  2  8  1  0
  2  9  1  0
  3 10  1  0
  4 11  1  0
  4 12  1  0
  4 13  1  0
  5 14  1  0
  6 15  1  0
  6 16  1  0
M  END
> <Name>
12020

> <Binding Energy>
-23.5696

> <Ligand Energy>
4.3667

> <Protein Energy>
-7801.1566

> <Complex Energy>
-7820.3595

> <Complex Entropy>
-31.4743

> <Protein Entropy>
-31.4717

> <Ligand Entropy>
-16.0058

> <Entropic Energy>
16.0032

> <AbsoluteEnergy>
7.08676

> <ConfNumber>
7

> <IonizationIndex>
1

> <MOL_NUMBER>
41

> <NumberOfIonizations>
1

> <NumberOfStereoisomers>
1

> <NumberOfTautomers>
1

> <PUBCHEM_ATOM_DEF_STEREO_COUNT>
0

> <PUBCHEM_ATOM_UDEF_STEREO_COUNT>
1

> <PUBCHEM_BOND_DEF_STEREO_COUNT>
0

> <PUBCHEM_BOND_UDEF_STEREO_COUNT>
0

> <PUBCHEM_CACTVS_TAUTO_COUNT>
1

> <PUBCHEM_COMPONENT_COUNT>
1

> <PUBCHEM_COMPOUND_CID>
12020

> <PUBCHEM_CONFORMER_DIVERSEORDER>
1
4
5
7
2
6
3

> <PUBCHEM_CONFORMER_ID>
00002EF400000001

> <PUBCHEM_CONFORMER_RMSD>
0.4

> <PUBCHEM_COORDINATE_TYPE>
2
5
10

> <PUBCHEM_EFFECTIVE_ROTOR_COUNT>
2

> <PUBCHEM_FEATURE_SELFOVERLAP>
20.297

> <PUBCHEM_HEAVY_ATOM_COUNT>
6

> <PUBCHEM_ISOTOPIC_ATOM_COUNT>
0

> <PUBCHEM_MMFF94_ENERGY>
2.7874

> <PUBCHEM_MMFF94_PARTIAL_CHARGES>
8
1 -0.68
13 0.15
14 0.4
15 0.15
16 0.15
3 0.42
5 -0.29
6 -0.3

> <PUBCHEM_PHARMACOPHORE_FEATURES>
4
1 1 acceptor
1 1 donor
1 4 hydrophobe
1 6 hydrophobe

> <PUBCHEM_SHAPE_FINGERPRINT>
139733 1 9583526412097346362
16714656 1 18120383055229245933
18185500 45 18269556211546855343
20096714 4 17474676525424569901
21040471 1 17617094707502470024
23552449 11 18046889748271879507
29004967 10 18264207078892805531
5943 1 13342700566653476313

> <PUBCHEM_SHAPE_MULTIPOLES>
117.61
2.41
1.58
0.66
0.04
0.5
0.01
-1.27
-0.03
-0.02
-0.09
-0.03
-0.03
0

> <PUBCHEM_SHAPE_SELFOVERLAP>
205.929

> <PUBCHEM_SHAPE_VOLUME>
78.1

> <RelativeEnergy>
2.17558

> <StereoisomerIndex>
1

> <TautomerIndex>
1

> <POSE_NUMBER>
1

> <LibDockScore>
48.5599

> <HotSpots>
7.21,9.27,-3.25,A,45,2
8.01,10.07,-2.25,A,50,3
6.61,11.87,-1.46,A,53,6

> <-In-Situ Starting Energy>
-68.1330183

> <-In-Situ Final Energy>
7.75630812

> <In-Situ Gradient>
0.0008619669639

$$$$
12508
  SciTegic09142310043D

 20 19  0  0  0  0            999 V2000
    6.0588   11.9455   -0.5278 O   0  0  0  1  0  0
    7.3703   11.3340   -2.2573 O   0  0  0  1  0  0
    6.6448   13.2406   -0.3768 C   0  0  0  1  0  0
    6.6377   14.1105   -1.6416 C   0  0  0  1  0  0
    6.1868   13.8914    0.8954 C   0  0  0  1  0  0
    6.3470    9.6008   -0.9338 C   0  0  0  1  0  0
    6.6535   11.0487   -1.3078 C   0  0  0  1  0  0
    6.4991    8.6842   -2.1562 C   0  0  0  1  0  0
    7.6158   13.0727   -0.0026 H   0  0
    5.6651   14.5016   -1.8866 H   0  0
    7.0099   13.6016   -2.5235 H   0  0
    7.2609   14.9806   -1.5038 H   0  0
    6.3575   13.0740    1.5823 H   0  0
    5.1545   14.2218    0.9242 H   0  0
    6.8287   14.7001    1.2369 H   0  0
    7.0357    9.3036   -0.1456 H   0  0
    5.3456    9.5502   -0.5092 H   0  0
    7.5382    8.6320   -2.4808 H   0  0
    5.9242    9.0457   -3.0073 H   0  0
    6.1658    7.6725   -1.9255 H   0  0
  1  3  1  0
  1  7  1  0
  2  7  2  0
  3  4  1  0
  3  5  1  0
  6  7  1  0
  6  8  1  0
  3  9  1  0
  4 10  1  0
  4 11  1  0
  4 12  1  0
  5 13  1  0
  5 14  1  0
  5 15  1  0
  6 16  1  0
  6 17  1  0
  8 18  1  0
  8 19  1  0
  8 20  1  0
M  END
> <Name>
12508

> <Binding Energy>
-27.9993

> <Ligand Energy>
-11.5053

> <Protein Energy>
-7801.1566

> <Complex Energy>
-7840.6612

> <Complex Entropy>
-31.4753

> <Protein Entropy>
-31.4717

> <Ligand Entropy>
-16.7798

> <Entropic Energy>
16.7761

> <AbsoluteEnergy>
7.42801

> <ConfNumber>
9

> <IonizationIndex>
1

> <MOL_NUMBER>
48

> <NumberOfIonizations>
1

> <NumberOfStereoisomers>
1

> <NumberOfTautomers>
1

> <PUBCHEM_ATOM_DEF_STEREO_COUNT>
0

> <PUBCHEM_ATOM_UDEF_STEREO_COUNT>
0

> <PUBCHEM_BOND_DEF_STEREO_COUNT>
0

> <PUBCHEM_BOND_UDEF_STEREO_COUNT>
0

> <PUBCHEM_CACTVS_TAUTO_COUNT>
1

> <PUBCHEM_COMPONENT_COUNT>
1

> <PUBCHEM_COMPOUND_CID>
12508

> <PUBCHEM_CONFORMER_DIVERSEORDER>
2
17
12
6
7
16
10
3
13
1
4
8
11
9
5
15
14

> <PUBCHEM_CONFORMER_ID>
000030DC00000002

> <PUBCHEM_CONFORMER_RMSD>
0.6

> <PUBCHEM_COORDINATE_TYPE>
2
5
10

> <PUBCHEM_EFFECTIVE_ROTOR_COUNT>
3

> <PUBCHEM_FEATURE_SELFOVERLAP>
15.223

> <PUBCHEM_HEAVY_ATOM_COUNT>
8

> <PUBCHEM_ISOTOPIC_ATOM_COUNT>
0

> <PUBCHEM_MMFF94_ENERGY>
8.0884

> <PUBCHEM_MMFF94_PARTIAL_CHARGES>
5
1 -0.43
2 -0.57
3 0.28
6 0.06
7 0.66

> <PUBCHEM_PHARMACOPHORE_FEATURES>
3
1 2 acceptor
1 8 hydrophobe
3 3 4 5 hydrophobe

> <PUBCHEM_SHAPE_FINGERPRINT>
10857977 72 18041838527550582337
12897270 3 12107788522860298250
12932741 1 18262503849455667356
12932764 1 18409441492596617639
14390081 3 17560802177577042665
23552333 60 14562801166655289512
29004967 10 18408606988987984114
5084963 1 18334859402670715368
5460574 1 11383834852706256383

> <PUBCHEM_SHAPE_MULTIPOLES>
152.9
4.32
1.08
0.85
1
0.16
0
-0.66
-0.63
-0.4
-0.09
0.04
0.19
0.36

> <PUBCHEM_SHAPE_SELFOVERLAP>
277.966

> <PUBCHEM_SHAPE_VOLUME>
98.7

> <RelativeEnergy>
0.601116

> <StereoisomerIndex>
1

> <TautomerIndex>
1

> <POSE_NUMBER>
1

> <LibDockScore>
63.2447

> <HotSpots>
6.41,14.07,-0.85,A,60,4
7.01,13.87,1.54,A,79,5
6.61,10.07,-1.25,A,54,6

> <-In-Situ Starting Energy>
-534.286813

> <-In-Situ Final Energy>
15.5203937

> <In-Situ Gradient>
0.000924732681

$$$$
1269845
  SciTegic09142310043D

 11 11  0  0  0  0            999 V2000
    8.2413    2.5181    2.4885 S   0  0  0  1  0  0
    3.7174    2.0213    0.5551 O   0  0  0  1  0  0
    5.8479    2.2153    1.3810 N   0  5  0  1  0  0
    7.6659    2.2534   -0.0773 N   0  0  0  1  0  0
    7.1930    2.3159    1.1920 C   0  0  0  1  0  0
    4.9382    2.0829    0.3816 C   0  0  0  1  0  0
    6.7485    2.1066   -1.2220 C   0  0  0  1  0  0
    5.4254    2.0234   -1.0113 C   0  0  0  1  0  0
    8.6553    2.3039   -0.2312 H   0  0
    7.1288    2.0679   -2.2260 H   0  0
    4.7358    1.9216   -1.8279 H   0  0
  1  5  2  0
  2  6  2  0
  3  5  1  0
  3  6  1  0
  4  5  1  0
  4  7  1  0
  6  8  1  0
  7  8  2  0
  4  9  1  0
  7 10  1  0
  8 11  1  0
M  CHG  1   3  -1
M  END
> <Name>
1269845

> <Binding Energy>
-19.0836

> <Ligand Energy>
2.8392

> <Protein Energy>
-7801.1566

> <Complex Energy>
-7817.401

> <Complex Entropy>
-31.475

> <Protein Entropy>
-31.4717

> <Ligand Entropy>
-16.8586

> <Entropic Energy>
16.8553

> <AbsoluteEnergy>
9.64643

> <ConfNumber>
1

> <Ionization pH>
7.5

> <IonizationIndex>
1

> <MOL_NUMBER>
49

> <NumberOfIonizations>
1

> <NumberOfStereoisomers>
1

> <NumberOfTautomers>
3

> <PUBCHEM_ATOM_DEF_STEREO_COUNT>
0

> <PUBCHEM_ATOM_UDEF_STEREO_COUNT>
0

> <PUBCHEM_BOND_DEF_STEREO_COUNT>
0

> <PUBCHEM_BOND_UDEF_STEREO_COUNT>
0

> <PUBCHEM_CACTVS_TAUTO_COUNT>
6

> <PUBCHEM_COMPONENT_COUNT>
1

> <PUBCHEM_COMPOUND_CID>
1269845

> <PUBCHEM_CONFORMER_DIVERSEORDER>
1

> <PUBCHEM_CONFORMER_ID>
13605500000001

> <PUBCHEM_CONFORMER_RMSD>
0.4

> <PUBCHEM_COORDINATE_TYPE>
2
5
10

> <PUBCHEM_EFFECTIVE_ROTOR_COUNT>
0

> <PUBCHEM_FEATURE_SELFOVERLAP>
25.413

> <PUBCHEM_HEAVY_ATOM_COUNT>
8

> <PUBCHEM_ISOTOPIC_ATOM_COUNT>
0

> <PUBCHEM_MMFF94_ENERGY>
11.8945

> <PUBCHEM_MMFF94_PARTIAL_CHARGES>
12
1 -0.38
10 0.37
11 0.15
12 0.15
2 -0.57
3 -0.49
4 -0.54
5 0.5
6 0.62
7 -0.04
8 -0.14
9 0.37

> <PUBCHEM_PHARMACOPHORE_FEATURES>
5
1 1 acceptor
1 2 acceptor
1 3 donor
1 4 donor
6 3 4 5 6 7 8 rings

> <PUBCHEM_SHAPE_FINGERPRINT>
10857977 72 18340753893397896258
16714656 1 18194124018939091684
18185500 45 18335420132078649890
21040471 1 17834394519009921956
23552423 10 18259991440064807630
241688 4 18409166605989021521
29004967 10 18191587668888730585

> <PUBCHEM_SHAPE_MULTIPOLES>
152.65
3.06
1.63
0.6
1.82
0.31
0
-1.09
0
-0.62
0
0.05
0.01
0

> <PUBCHEM_SHAPE_SELFOVERLAP>
301.421

> <PUBCHEM_SHAPE_VOLUME>
91.9

> <RelativeEnergy>
0

> <StereoisomerIndex>
1

> <TautomerIndex>
1

> <POSE_NUMBER>
1

> <LibDockScore>
46.3515

> <HotSpots>
6.01,1.67,2.54,A,83,1
4.81,0.47,-1.05,A,56,6
6.61,-0.93,-0.06,A,65,7

> <-In-Situ Starting Energy>
5.16356086

> <-In-Situ Final Energy>
33.731618

> <In-Situ Gradient>
0.0008288603215

$$$$
1349907
  SciTegic09142310043D

 13 13  0  0  0  0            999 V2000
    5.9950    8.5257    0.0770 S   0  0  0  1  0  0
    6.6310   10.2966   -1.8453 N   0  0  0  1  0  0
    6.6700    8.1215   -2.5109 N   0  0  0  1  0  0
    6.4719    9.0135   -1.5451 C   0  0  0  1  0  0
    6.8776   10.2520   -3.1784 C   0  0  0  1  0  0
    6.5376   11.4330   -0.9283 C   0  0  0  1  0  0
    6.9257    8.9013   -3.5872 C   0  0  0  1  0  0
    5.2263    9.4720    0.6210 H   0  0
    7.0085   11.0894   -3.8424 H   0  0
    7.2060   11.2900   -0.0832 H   0  0
    5.5277   11.4477   -0.5403 H   0  0
    6.7738   12.3772   -1.4188 H   0  0
    7.1236    8.5513   -4.5890 H   0  0
  1  4  1  0
  2  4  1  0
  2  5  1  0
  2  6  1  0
  3  4  2  0
  3  7  1  0
  5  7  2  0
  1  8  1  0
  5  9  1  0
  6 10  1  0
  6 11  1  0
  6 12  1  0
  7 13  1  0
M  END
> <Name>
1349907

> <Binding Energy>
-4.109

> <Ligand Energy>
5.8391

> <Protein Energy>
-7801.1566

> <Complex Energy>
-7799.4265

> <Complex Entropy>
-31.475

> <Protein Entropy>
-31.4717

> <Ligand Entropy>
-16.502

> <Entropic Energy>
16.4986

> <AbsoluteEnergy>
7.54632

> <ConfNumber>
1

> <IonizationIndex>
1

> <MOL_NUMBER>
56

> <NumberOfIonizations>
1

> <NumberOfStereoisomers>
1

> <NumberOfTautomers>
2

> <PUBCHEM_ATOM_DEF_STEREO_COUNT>
0

> <PUBCHEM_ATOM_UDEF_STEREO_COUNT>
0

> <PUBCHEM_BOND_DEF_STEREO_COUNT>
0

> <PUBCHEM_BOND_UDEF_STEREO_COUNT>
0

> <PUBCHEM_CACTVS_TAUTO_COUNT>
2

> <PUBCHEM_COMPONENT_COUNT>
1

> <PUBCHEM_COMPOUND_CID>
1349907

> <PUBCHEM_CONFORMER_DIVERSEORDER>
1

> <PUBCHEM_CONFORMER_ID>
14991300000001

> <PUBCHEM_CONFORMER_RMSD>
0.4

> <PUBCHEM_COORDINATE_TYPE>
2
5
10

> <PUBCHEM_EFFECTIVE_ROTOR_COUNT>
0

> <PUBCHEM_FEATURE_SELFOVERLAP>
15.223

> <PUBCHEM_HEAVY_ATOM_COUNT>
7

> <PUBCHEM_ISOTOPIC_ATOM_COUNT>
0

> <PUBCHEM_MMFF94_ENERGY>
25.7066

> <PUBCHEM_MMFF94_PARTIAL_CHARGES>
10
1 -0.38
12 0.37
13 0.15
2 -0.47
3 -0.54
4 0.5
5 -0.04
6 0.3
7 -0.04
8 0.15

> <PUBCHEM_PHARMACOPHORE_FEATURES>
3
1 1 acceptor
1 3 donor
5 2 3 4 5 7 rings

> <PUBCHEM_SHAPE_FINGERPRINT>
18185500 45 18341613775762481823
20096714 4 17690281933652417059
21040471 1 17113820146256782373
23552423 10 18044667395007592286
29004967 10 18336266850611092811

> <PUBCHEM_SHAPE_MULTIPOLES>
137.94
2.31
1.85
0.61
1.14
1.04
0
-0.71
0
-0.11
0
0.04
0
0

> <PUBCHEM_SHAPE_SELFOVERLAP>
266.307

> <PUBCHEM_SHAPE_VOLUME>
86

> <RelativeEnergy>
0

> <StereoisomerIndex>
1

> <TautomerIndex>
1

> <POSE_NUMBER>
1

> <LibDockScore>
56.823

> <HotSpots>
8.01,10.07,-2.25,A,50,1
6.21,10.67,0.94,A,74,5
5.81,8.67,-0.66,A,61,6

> <-In-Situ Starting Energy>
-28.2870592

> <-In-Situ Final Energy>
5.65926114

> <In-Situ Gradient>
0.0006523384034

$$$$
14217
  SciTegic09142310043D

 12 11  0  0  0  0            999 V2000
    7.5242    9.9811   -2.4112 S   0  0  0  1  0  0
    6.7966   11.0421   -3.1619 O   0  0  0  1  0  0
    7.8987    8.6959   -3.5183 C   0  0  0  1  0  0
    6.4228    9.3480   -1.2299 C   0  0  0  1  0  0
    8.7748    8.8517   -4.5247 C   0  0  0  1  0  0
    6.1943    9.9973   -0.0772 C   0  0  0  1  0  0
    7.4183    7.7462   -3.3929 H   0  0
    5.9072    8.4249   -1.4229 H   0  0
    9.2868    9.7779   -4.6901 H   0  0
    8.9931    8.0461   -5.2011 H   0  0
    6.7056   10.9098    0.1677 H   0  0
    5.4905    9.6180    0.6393 H   0  0
  1  2  2  0
  1  3  1  0
  1  4  1  0
  3  5  2  0
  4  6  2  0
  3  7  1  0
  4  8  1  0
  5  9  1  0
  5 10  1  0
  6 11  1  0
  6 12  1  0
M  END
> <Name>
14217

> <Binding Energy>
-20.1143

> <Ligand Energy>
0.5944

> <Protein Energy>
-7801.1566

> <Complex Energy>
-7820.6766

> <Complex Entropy>
-31.4748

> <Protein Entropy>
-31.4717

> <Ligand Entropy>
-16.2002

> <Entropic Energy>
16.1972

> <AbsoluteEnergy>
7.36283

> <ConfNumber>
19

> <IonizationIndex>
1

> <MOL_NUMBER>
59

> <NumberOfIonizations>
1

> <NumberOfStereoisomers>
1

> <NumberOfTautomers>
1

> <PUBCHEM_ATOM_DEF_STEREO_COUNT>
0

> <PUBCHEM_ATOM_UDEF_STEREO_COUNT>
0

> <PUBCHEM_BOND_DEF_STEREO_COUNT>
0

> <PUBCHEM_BOND_UDEF_STEREO_COUNT>
0

> <PUBCHEM_CACTVS_TAUTO_COUNT>
1

> <PUBCHEM_COMPONENT_COUNT>
1

> <PUBCHEM_COMPOUND_CID>
14217

> <PUBCHEM_CONFORMER_DIVERSEORDER>
1
14
4
11
3
12
2
13
5
6
8
9
7
10

> <PUBCHEM_CONFORMER_ID>
378900000001

> <PUBCHEM_CONFORMER_RMSD>
0.4

> <PUBCHEM_COORDINATE_TYPE>
2
5
10

> <PUBCHEM_EFFECTIVE_ROTOR_COUNT>
2

> <PUBCHEM_FEATURE_SELFOVERLAP>
5.074

> <PUBCHEM_HEAVY_ATOM_COUNT>
6

> <PUBCHEM_ISOTOPIC_ATOM_COUNT>
0

> <PUBCHEM_MMFF94_ENERGY>
8.2519

> <PUBCHEM_MMFF94_PARTIAL_CHARGES>
12
1 0.39
10 0.15
11 0.15
12 0.15
2 -0.5
3 -0.09
4 -0.09
5 -0.3
6 -0.3
7 0.15
8 0.15
9 0.15

> <PUBCHEM_PHARMACOPHORE_FEATURES>
1
1 2 acceptor

> <PUBCHEM_SHAPE_FINGERPRINT>
139733 1 8070028869538741803
14390081 3 12757139186951459151
16714656 1 18412826854522873359
23552423 10 18117845391114571106
23552449 11 17702930539192876571
29004967 10 18410298033545043794
5460574 1 8862944978528845883
5943 1 10725544287519602544

> <PUBCHEM_SHAPE_MULTIPOLES>
121.46
3.37
1.09
0.73
0
0.31
-0.07
-0.58
0.62
0
0.04
0
0.01
0

> <PUBCHEM_SHAPE_SELFOVERLAP>
204.628

> <PUBCHEM_SHAPE_VOLUME>
82.2

> <RelativeEnergy>
0.617127

> <StereoisomerIndex>
1

> <TautomerIndex>
1

> <POSE_NUMBER>
1

> <LibDockScore>
55.2174

> <HotSpots>
9.81,9.87,-3.46,P,67,2
8.41,8.07,-4.86,A,38,3
7.01,11.07,-2.85,A,47,6

> <-In-Situ Starting Energy>
-37.0925298

> <-In-Situ Final Energy>
15.6387633

> <In-Situ Gradient>
0.0009610232445

$$$$
14362
  SciTegic09142310043D

 31 31  0  0  0  0            999 V2000
    6.6616    4.1127    3.1179 Br  0  0  0  1  0  0
    8.0100   -0.4088    0.4997 O   0  0  0  1  0  0
    4.0519    2.0332    0.7242 O   0  0  0  1  0  0
    5.7288    0.0844    4.4964 O   0  0  0  1  0  0
    6.9317   -0.0974    2.4651 N   0  0  0  1  0  0
    5.0781    1.2992    2.6100 N   0  5  0  1  0  0
    6.4325    1.4324    0.5695 C   0  0  2  1  0  0
    6.1136    1.2246   -0.9550 C   0  0  1  1  0  0
    7.3783    2.6521    0.7606 C   0  0  0  1  0  0
    7.3405    1.2911   -1.9020 C   0  0  0  1  0  0
    7.1976    0.2112    1.1692 C   0  0  0  1  0  0
    5.0751    1.6435    1.3040 C   0  0  0  1  0  0
    5.2970   -0.0522   -1.2071 C   0  0  0  1  0  0
    7.0263    0.9388   -3.3624 C   0  0  0  1  0  0
    7.8383    2.9942    2.1634 C   0  0  0  1  0  0
    5.9390    0.4443    3.2050 C   0  0  0  1  0  0
    9.0690    2.7156    2.6205 C   0  0  0  1  0  0
    6.4852    0.1084    5.0906 H   0  0
    5.4812    2.0565   -1.2730 H   0  0
    8.2841    2.4726    0.1805 H   0  0
    6.9269    3.5308    0.2959 H   0  0
    7.7506    2.3007   -1.8910 H   0  0
    8.1384    0.6343   -1.5629 H   0  0
    4.4084   -0.0897   -0.5929 H   0  0
    5.8863   -0.9443   -0.9960 H   0  0
    4.9469   -0.1073   -2.2370 H   0  0
    6.1595    1.4895   -3.7242 H   0  0
    6.8109   -0.1231   -3.4768 H   0  0
    7.8748    1.1657   -4.0072 H   0  0
    9.4456    3.1047    3.5478 H   0  0
    9.7302    2.0854    2.0660 H   0  0
  1 15  1  0
  2 11  2  0
  3 12  2  0
  4 16  1  0
  5 11  1  0
  5 16  2  0
  6 12  1  0
  6 16  1  0
  7  8  1  0
  7  9  1  0
  7 11  1  0
  7 12  1  0
  8 10  1  0
  8 13  1  0
  9 15  1  0
 10 14  1  0
 15 17  2  0
  4 18  1  0
  8 19  1  0
  9 20  1  0
  9 21  1  0
 10 22  1  0
 10 23  1  0
 13 24  1  0
 13 25  1  0
 13 26  1  0
 14 27  1  0
 14 28  1  0
 14 29  1  0
 17 30  1  0
 17 31  1  0
M  CHG  1   6  -1
M  END
> <Name>
14362

> <Binding Energy>
-84.2438

> <Ligand Energy>
36.7706

> <Protein Energy>
-7801.1566

> <Complex Energy>
-7848.6299

> <Complex Entropy>
-31.4796

> <Protein Entropy>
-31.4717

> <Ligand Entropy>
-19.0526

> <Entropic Energy>
19.0446

> <AbsoluteEnergy>
29.3665

> <ConfNumber>
4

> <Ionization pH>
7.7_D

> <IonizationIndex>
2

> <MOL_NUMBER>
73

> <NumberOfIonizations>
2

> <NumberOfStereoisomers>
2

> <NumberOfTautomers>
3

> <PUBCHEM_ATOM_DEF_STEREO_COUNT>
0

> <PUBCHEM_ATOM_UDEF_STEREO_COUNT>
1

> <PUBCHEM_BOND_DEF_STEREO_COUNT>
0

> <PUBCHEM_BOND_UDEF_STEREO_COUNT>
0

> <PUBCHEM_CACTVS_TAUTO_COUNT>
5

> <PUBCHEM_COMPONENT_COUNT>
1

> <PUBCHEM_COMPOUND_CID>
14362

> <PUBCHEM_CONFORMER_DIVERSEORDER>
1
15
28
4
22
19
17
6
30
31
26
27
32
23
16
12
8
24
14
5
9
20
21
11
18
10
2
3
29
25
7
33
13

> <PUBCHEM_CONFORMER_ID>
0000381A00000001

> <PUBCHEM_CONFORMER_RMSD>
0.6

> <PUBCHEM_COORDINATE_TYPE>
2
5
10

> <PUBCHEM_EFFECTIVE_ROTOR_COUNT>
4.6

> <PUBCHEM_FEATURE_SELFOVERLAP>
45.713

> <PUBCHEM_HEAVY_ATOM_COUNT>
17

> <PUBCHEM_ISOTOPIC_ATOM_COUNT>
0

> <PUBCHEM_MMFF94_ENERGY>
57.3999

> <PUBCHEM_MMFF94_PARTIAL_CHARGES>
17
1 -0.11
11 0.57
12 0.57
15 -0.03
16 0.69
17 -0.3
2 -0.57
29 0.37
3 -0.57
30 0.37
31 0.15
32 0.15
4 -0.57
5 -0.49
6 -0.49
7 0.12
9 0.14

> <PUBCHEM_PHARMACOPHORE_FEATURES>
9
1 1 hydrophobe
1 13 hydrophobe
1 14 hydrophobe
1 2 acceptor
1 3 acceptor
1 4 acceptor
1 5 donor
1 6 donor
6 5 6 7 11 12 16 rings

> <PUBCHEM_SHAPE_FINGERPRINT>
10702982 57 17756947398124359372
12326174 3 18270683047909289645
12423570 1 10751871475087322517
12716301 132 18047492276290852568
13024252 1 15794520417675856076
141345 1 12862121050760148873
14617773 55 16957009915454212712
14817 1 14608491548309129769
15852999 172 18127992972995365836
15881359 60 16911169089495601820
15906896 17 17910382123950442508
16945 1 17982983710014215162
19765921 60 17917708041346704185
20711985 344 17614568467926416858
21524375 3 18059000800190845201
22112679 90 17121167679901073947
22344851 341 18272375286625460871
23419403 2 17393095764857321226
2748010 2 17247858052608452567
430814 3 18127383817752106185
5845 1 10499275394650320065
7364860 26 18265336105936655673
81228 2 17615678970074887953

> <PUBCHEM_SHAPE_MULTIPOLES>
328.22
3.65
3
1.97
0.12
3.51
-0.16
-3.87
0.49
0.72
0.61
-0.5
-0.2
0.24

> <PUBCHEM_SHAPE_SELFOVERLAP>
663.713

> <PUBCHEM_SHAPE_VOLUME>
194.2

> <RelativeEnergy>
1.80503

> <StereoisomerIndex>
2

> <TautomerIndex>
3

> <POSE_NUMBER>
1

> <LibDockScore>
97.5124

> <HotSpots>
6.61,4.27,3.15,A,86,1
5.81,-0.73,4.54,P,96,4
7.81,2.67,0.94,A,73,9

> <-In-Situ Starting Energy>
-129.888478

> <-In-Situ Final Energy>
34.3522017

> <In-Situ Gradient>
0.0008006035624

$$$$
14525
  SciTegic09142310043D

 27 28  0  0  0  0            999 V2000
    8.3708    0.7735    1.7986 O   0  0  0  1  0  0
    7.1066   -0.0867   -0.0955 C   0  0  1  1  0  0
    5.7094    1.6637   -0.2997 C   0  0  2  1  0  0
    6.5297    2.0965    0.9415 C   0  0  0  1  0  0
    5.6158    0.1525   -0.1142 C   0  0  0  1  0  0
    7.5456    0.5774   -1.4195 C   0  0  0  1  0  0
    6.5346    1.7271   -1.5967 C   0  0  0  1  0  0
    7.4775    0.8947    1.0208 C   0  0  0  1  0  0
    7.5092   -1.5324    0.2183 C   0  0  0  1  0  0
    5.6341    2.1912    2.1946 C   0  0  0  1  0  0
    7.4028    3.3388    0.7599 C   0  0  0  1  0  0
    4.7525    2.1773   -0.3888 H   0  0
    5.1105   -0.3671   -0.9308 H   0  0
    5.2080   -0.1641    0.8359 H   0  0
    8.5589    0.9651   -1.3651 H   0  0
    7.4817   -0.0878   -2.2760 H   0  0
    5.8905    1.5285   -2.4550 H   0  0
    7.0027    2.6953   -1.7721 H   0  0
    8.5184   -1.7527   -0.1196 H   0  0
    6.8296   -2.2336   -0.2646 H   0  0
    7.4622   -1.7458    1.2871 H   0  0
    5.5032    1.2291    2.6928 H   0  0
    4.6380    2.5464    1.9416 H   0  0
    6.0362    2.9002    2.9162 H   0  0
    6.8261    4.2037    0.4648 H   0  0
    8.1832    3.1984    0.0105 H   0  0
    7.9044    3.5656    1.7005 H   0  0
  1  8  2  0
  2  5  1  0
  2  6  1  0
  2  8  1  0
  2  9  1  0
  3  4  1  0
  3  5  1  0
  3  7  1  0
  4  8  1  0
  4 10  1  0
  4 11  1  0
  6  7  1  0
  3 12  1  0
  5 13  1  0
  5 14  1  0
  6 15  1  0
  6 16  1  0
  7 17  1  0
  7 18  1  0
  9 19  1  0
  9 20  1  0
  9 21  1  0
 10 22  1  0
 10 23  1  0
 10 24  1  0
 11 25  1  0
 11 26  1  0
 11 27  1  0
M  END
> <Name>
14525

> <Binding Energy>
-25.207

> <Ligand Energy>
49.7664

> <Protein Energy>
-7801.1566

> <Complex Energy>
-7776.5972

> <Complex Entropy>
-31.4757

> <Protein Entropy>
-31.4717

> <Ligand Entropy>
-17.2968

> <Entropic Energy>
17.2928

> <AbsoluteEnergy>
20.2913

> <ConfNumber>
1

> <IonizationIndex>
1

> <MOL_NUMBER>
74

> <NumberOfIonizations>
1

> <NumberOfStereoisomers>
1

> <NumberOfTautomers>
1

> <PUBCHEM_ATOM_DEF_STEREO_COUNT>
0

> <PUBCHEM_ATOM_UDEF_STEREO_COUNT>
2

> <PUBCHEM_BOND_DEF_STEREO_COUNT>
0

> <PUBCHEM_BOND_UDEF_STEREO_COUNT>
0

> <PUBCHEM_CACTVS_TAUTO_COUNT>
1

> <PUBCHEM_COMPONENT_COUNT>
1

> <PUBCHEM_COMPOUND_CID>
14525

> <PUBCHEM_CONFORMER_DIVERSEORDER>
1
2

> <PUBCHEM_CONFORMER_ID>
000038BD00000001

> <PUBCHEM_CONFORMER_RMSD>
0.4

> <PUBCHEM_COORDINATE_TYPE>
2
5
10

> <PUBCHEM_EFFECTIVE_ROTOR_COUNT>
0.8

> <PUBCHEM_FEATURE_SELFOVERLAP>
15.223

> <PUBCHEM_HEAVY_ATOM_COUNT>
11

> <PUBCHEM_ISOTOPIC_ATOM_COUNT>
0

> <PUBCHEM_MMFF94_ENERGY>
40.8221

> <PUBCHEM_MMFF94_PARTIAL_CHARGES>
4
1 -0.57
2 0.06
4 0.06
8 0.45

> <PUBCHEM_PHARMACOPHORE_FEATURES>
3
1 1 acceptor
3 4 10 11 hydrophobe
7 2 3 4 5 6 7 8 rings

> <PUBCHEM_SHAPE_FINGERPRINT>
12423570 1 10691567810632094513
13024252 1 16226884424550755384
137420 1 15333483200648038193
14128692 85 18053961819994089807
16945 1 17753306704634446344
21040471 1 17906168451801007720
21922407 69 17386299713513748792
22344851 341 17545888590672874186
23552423 10 17676765375293157858
2748010 2 18339630226489211293
29004967 10 18273209798617839665
369184 2 18263906775069515784
5084963 1 18337395941815805786
528886 8 18270419220794903453
68250623 7 17749387048818681777

> <PUBCHEM_SHAPE_MULTIPOLES>
220.51
2.54
1.72
1.22
0.16
0.12
0.15
-0.65
0.02
-0.31
-0.31
0.28
0.03
-0.05

> <PUBCHEM_SHAPE_SELFOVERLAP>
469.765

> <PUBCHEM_SHAPE_VOLUME>
130.2

> <RelativeEnergy>
0

> <StereoisomerIndex>
1

> <TautomerIndex>
1

> <POSE_NUMBER>
1

> <LibDockScore>
62.8171

> <HotSpots>
7.61,-2.13,0.94,A,72,9
6.01,1.67,2.54,A,83,10
7.81,2.67,0.94,A,73,11

> <-In-Situ Starting Energy>
-652.688128

> <-In-Situ Final Energy>
-25.6579604

> <In-Situ Gradient>
0.0009389252966

$$$$
15406
  SciTegic09142310043D

 29 30  0  0  0  0            999 V2000
    4.1247    2.0984   -0.7565 O   0  0  0  1  0  0
    6.2157    0.9056   -1.2527 C   0  0  2  1  0  0
    6.6329    0.5529    0.8993 C   0  0  1  1  0  0
    5.9915    1.9679    0.9139 C   0  0  0  1  0  0
    5.5490    2.1321   -0.5763 C   0  0  2  1  0  0
    5.9188   -0.1721   -0.2313 C   0  0  0  1  0  0
    7.7474    1.0258   -1.1584 C   0  0  0  1  0  0
    8.0322    0.6116    0.2931 C   0  0  0  1  0  0
    5.7452    0.5518   -2.6613 C   0  0  0  1  0  0
    4.8399    2.0255    1.9322 C   0  0  0  1  0  0
    7.0069    3.0655    1.3139 C   0  0  0  1  0  0
    3.9407    2.4030   -1.6490 H   0  0
    6.6126    0.0320    1.8571 H   0  0
    5.9685    3.0671   -0.9757 H   0  0
    6.3561   -1.1414   -0.4793 H   0  0
    4.8546   -0.3007   -0.0902 H   0  0
    8.2400    0.3413   -1.8478 H   0  0
    8.0944    2.0339   -1.3860 H   0  0
    8.7193    1.2693    0.8219 H   0  0
    8.4542   -0.3913    0.3112 H   0  0
    5.7415    1.4182   -3.3193 H   0  0
    4.7566    0.0984   -2.6230 H   0  0
    6.4013   -0.1882   -3.1168 H   0  0
    5.0033    1.3358    2.7604 H   0  0
    3.8782    1.8089    1.4870 H   0  0
    4.7559    3.0119    2.3776 H   0  0
    7.7703    3.2245    0.5534 H   0  0
    7.5170    2.8184    2.2427 H   0  0
    6.5231    4.0293    1.4601 H   0  0
  1  5  1  0
  2  5  1  0
  2  6  1  0
  2  7  1  0
  2  9  1  0
  3  4  1  0
  3  6  1  0
  3  8  1  0
  4  5  1  0
  4 10  1  0
  4 11  1  0
  7  8  1  0
  1 12  1  0
  3 13  1  0
  5 14  1  0
  6 15  1  0
  6 16  1  0
  7 17  1  0
  7 18  1  0
  8 19  1  0
  8 20  1  0
  9 21  1  0
  9 22  1  0
  9 23  1  0
 10 24  1  0
 10 25  1  0
 10 26  1  0
 11 27  1  0
 11 28  1  0
 11 29  1  0
M  END
> <Name>
15406

> <Binding Energy>
-35.4037

> <Ligand Energy>
46.0838

> <Protein Energy>
-7801.1566

> <Complex Energy>
-7790.4766

> <Complex Entropy>
-31.4757

> <Protein Entropy>
-31.4717

> <Ligand Entropy>
-17.3345

> <Entropic Energy>
17.3305

> <AbsoluteEnergy>
18.0626

> <ConfNumber>
1

> <IonizationIndex>
1

> <MOL_NUMBER>
84

> <NumberOfIonizations>
1

> <NumberOfStereoisomers>
1

> <NumberOfTautomers>
1

> <PUBCHEM_ATOM_DEF_STEREO_COUNT>
0

> <PUBCHEM_ATOM_UDEF_STEREO_COUNT>
3

> <PUBCHEM_BOND_DEF_STEREO_COUNT>
0

> <PUBCHEM_BOND_UDEF_STEREO_COUNT>
0

> <PUBCHEM_CACTVS_TAUTO_COUNT>
1

> <PUBCHEM_COMPONENT_COUNT>
1

> <PUBCHEM_COMPOUND_CID>
15406

> <PUBCHEM_CONFORMER_DIVERSEORDER>
2
1
3
4

> <PUBCHEM_CONFORMER_ID>
00003C2E00000002

> <PUBCHEM_CONFORMER_RMSD>
0.4

> <PUBCHEM_COORDINATE_TYPE>
2
5
10

> <PUBCHEM_EFFECTIVE_ROTOR_COUNT>
1

> <PUBCHEM_FEATURE_SELFOVERLAP>
20.297

> <PUBCHEM_HEAVY_ATOM_COUNT>
11

> <PUBCHEM_ISOTOPIC_ATOM_COUNT>
0

> <PUBCHEM_MMFF94_ENERGY>
52.8102

> <PUBCHEM_MMFF94_PARTIAL_CHARGES>
3
1 -0.68
29 0.4
5 0.28

> <PUBCHEM_PHARMACOPHORE_FEATURES>
4
1 1 acceptor
1 1 donor
3 4 10 11 hydrophobe
7 2 3 4 5 6 7 8 rings

> <PUBCHEM_SHAPE_FINGERPRINT>
12423570 1 17983578790565457523
13024252 1 15937783334058482312
137420 1 16748785047525476227
15557651 10 18053970371157873048
16945 1 18051683640322512766
21040471 1 18334857199257546983
241688 4 18411987948641560530
2748010 2 18410575084747592039
29004967 10 15984816086086937730
369184 2 18189599704821505456
5084963 1 18198647542930382387
528886 8 18339081471534351127

> <PUBCHEM_SHAPE_MULTIPOLES>
220.51
2.56
1.84
1.13
0.14
0.01
-0.14
-0.56
0.22
-0.25
0.17
0.24
0.11
0.17

> <PUBCHEM_SHAPE_SELFOVERLAP>
463.575

> <PUBCHEM_SHAPE_VOLUME>
131.4

> <RelativeEnergy>
0

> <StereoisomerIndex>
1

> <TautomerIndex>
1

> <POSE_NUMBER>
1

> <LibDockScore>
61.1833

> <HotSpots>
6.61,-0.93,-0.06,A,65,8
7.21,1.27,-2.85,A,46,9
7.61,1.27,1.95,A,80,11

> <-In-Situ Starting Energy>
-3830.65678

> <-In-Situ Final Energy>
-17.1265455

> <In-Situ Gradient>
0.0007160344255

$$$$
1549517
  SciTegic09142310043D

 15 14  0  0  0  0            999 V2000
    5.8316    8.5506   -0.2981 S   0  0  0  1  0  0
    7.0392   10.0569   -2.2476 N   0  0  0  1  0  0
    6.7990   11.0726   -0.2318 N   0  0  0  1  0  0
    6.8665    8.9863   -3.2216 C   0  0  0  1  0  0
    7.9976    8.9167   -4.2107 C   0  0  0  1  0  0
    6.5994    9.9763   -0.9761 C   0  0  0  1  0  0
    8.4998    7.7852   -4.7327 C   0  0  0  1  0  0
    6.6057    8.0315    0.6576 H   0  0
    7.4986   10.9000   -2.5102 H   0  0
    6.7295   11.0148    0.7679 H   0  0
    5.9474    9.2241   -3.7519 H   0  0
    6.7395    8.0352   -2.7030 H   0  0
    8.4808    9.8488   -4.4236 H   0  0
    8.0713    6.8266   -4.5097 H   0  0
    9.3455    7.7986   -5.3945 H   0  0
  1  6  1  0
  2  4  1  0
  2  6  1  0
  3  6  2  0
  4  5  1  0
  5  7  2  0
  1  8  1  0
  2  9  1  0
  3 10  1  0
  4 11  1  0
  4 12  1  0
  5 13  1  0
  7 14  1  0
  7 15  1  0
M  END
> <Name>
1549517

> <Binding Energy>
-20.6944

> <Ligand Energy>
2.5253

> <Protein Energy>
-7801.1566

> <Complex Energy>
-7819.3257

> <Complex Entropy>
-31.4751

> <Protein Entropy>
-31.4717

> <Ligand Entropy>
-16.8128

> <Entropic Energy>
16.8093

> <AbsoluteEnergy>
4.83593

> <ConfNumber>
1

> <IonizationIndex>
1

> <MOL_NUMBER>
89

> <NumberOfIonizations>
1

> <NumberOfStereoisomers>
1

> <NumberOfTautomers>
3

> <PUBCHEM_ATOM_DEF_STEREO_COUNT>
0

> <PUBCHEM_ATOM_UDEF_STEREO_COUNT>
0

> <PUBCHEM_BOND_DEF_STEREO_COUNT>
0

> <PUBCHEM_BOND_UDEF_STEREO_COUNT>
0

> <PUBCHEM_CACTVS_TAUTO_COUNT>
3

> <PUBCHEM_COMPONENT_COUNT>
1

> <PUBCHEM_COMPOUND_CID>
1549517

> <PUBCHEM_CONFORMER_DIVERSEORDER>
2
37
65
49
26
34
22
57
21
50
61
33
40
36
1
56
38
29
39
54
43
52
35
58
20
32
11
60
55
8
14
7
47
15
62
10
12
63
13
9
6
53
3
31
28
5
44
45
24
30
19
16
27
48
17
4
42
25
46
51
41
18
23
64
59

> <PUBCHEM_CONFORMER_ID>
0017A4CD00000002

> <PUBCHEM_CONFORMER_RMSD>
0.4

> <PUBCHEM_COORDINATE_TYPE>
2
5
10

> <PUBCHEM_EFFECTIVE_ROTOR_COUNT>
3

> <PUBCHEM_FEATURE_SELFOVERLAP>
20.338

> <PUBCHEM_HEAVY_ATOM_COUNT>
7

> <PUBCHEM_ISOTOPIC_ATOM_COUNT>
0

> <PUBCHEM_MMFF94_ENERGY>
4.5905

> <PUBCHEM_MMFF94_PARTIAL_CHARGES>
13
1 -0.38
10 0.37
11 0.15
12 0.37
13 0.37
14 0.15
15 0.15
2 -0.73
3 -0.8
4 0.44
5 -0.29
6 0.5
7 -0.3

> <PUBCHEM_PHARMACOPHORE_FEATURES>
4
1 1 acceptor
1 2 donor
1 3 donor
1 7 hydrophobe

> <PUBCHEM_SHAPE_FINGERPRINT>
10857977 72 18270675493061692506
12897270 3 10663813061929332065
12932741 1 17846510226662198908
12932764 1 17095237025616107908
14325111 11 18411699898381058550
14390081 3 18131349682999689065
21040471 1 18337398127911760063
21293036 1 15195273231700380785
29004967 10 17418102035164688354
3248919 1 18408320003726540302
5460574 1 7853575707833660868

> <PUBCHEM_SHAPE_MULTIPOLES>
137.94
5
1.11
0.68
1.48
0.17
-0.01
-1.33
-0.55
-0.78
-0.05
0.14
-0.04
0.08

> <PUBCHEM_SHAPE_SELFOVERLAP>
240.465

> <PUBCHEM_SHAPE_VOLUME>
91.8

> <RelativeEnergy>
0

> <StereoisomerIndex>
1

> <TautomerIndex>
3

> <POSE_NUMBER>
1

> <LibDockScore>
62.9885

> <HotSpots>
5.81,8.67,-0.66,A,61,1
7.21,9.27,-3.25,A,45,4
8.41,8.07,-4.86,A,38,7

> <-In-Situ Starting Energy>
-14.1129934

> <-In-Situ Final Energy>
12.6229333

> <In-Situ Gradient>
0.0007638182968

$$$$
159055
  SciTegic09142310043D

 27 28  0  0  0  0            999 V2000
    6.0806   -0.5810    2.1625 O   0  0  0  1  0  0
    7.2044    2.0290    0.2965 C   0  0  0  1  0  0
    5.8790    1.4151    0.7799 C   0  0  1  1  0  0
    7.4779    0.8751   -0.6877 C   0  0  2  1  0  0
    5.0944    1.1886   -0.5374 C   0  0  0  1  0  0
    6.2054    0.8704   -1.5592 C   0  0  0  1  0  0
    7.4549   -0.3973    0.1884 C   0  0  0  1  0  0
    6.3856    0.0187    1.1798 C   0  0  0  1  0  0
    7.0595    3.3908   -0.4150 C   0  0  0  1  0  0
    8.2717    2.2096    1.4026 C   0  0  0  1  0  0
    5.1508    2.1392    1.9243 C   0  0  0  1  0  0
    8.3899    0.9830   -1.2717 H   0  0
    4.3997    0.3540   -0.4864 H   0  0
    4.5337    2.0749   -0.8359 H   0  0
    6.2539    1.6341   -2.3366 H   0  0
    6.0515   -0.0871   -2.0582 H   0  0
    8.3774   -0.5714    0.7261 H   0  0
    7.1520   -1.3052   -0.3277 H   0  0
    7.0243    4.2028    0.3086 H   0  0
    6.1767    3.4819   -1.0451 H   0  0
    7.9209    3.5641   -1.0565 H   0  0
    8.5561    1.2895    1.9092 H   0  0
    7.9234    2.9060    2.1649 H   0  0
    9.1776    2.6410    0.9863 H   0  0
    5.5322    3.1510    2.0512 H   0  0
    5.2914    1.6385    2.8825 H   0  0
    4.0799    2.1956    1.7434 H   0  0
  1  8  2  0
  2  3  1  0
  2  4  1  0
  2  9  1  0
  2 10  1  0
  3  5  1  0
  3  8  1  0
  3 11  1  0
  4  6  1  0
  4  7  1  0
  5  6  1  0
  7  8  1  0
  4 12  1  0
  5 13  1  0
  5 14  1  0
  6 15  1  0
  6 16  1  0
  7 17  1  0
  7 18  1  0
  9 19  1  0
  9 20  1  0
  9 21  1  0
 10 22  1  0
 10 23  1  0
 10 24  1  0
 11 25  1  0
 11 26  1  0
 11 27  1  0
M  END
> <Name>
159055

> <Binding Energy>
-41.0226

> <Ligand Energy>
50.1385

> <Protein Energy>
-7801.1566

> <Complex Energy>
-7792.0408

> <Complex Entropy>
-31.4757

> <Protein Entropy>
-31.4717

> <Ligand Entropy>
-17.2781

> <Entropic Energy>
17.2741

> <AbsoluteEnergy>
24.2354

> <ConfNumber>
1

> <IonizationIndex>
1

> <MOL_NUMBER>
90

> <NumberOfIonizations>
1

> <NumberOfStereoisomers>
1

> <NumberOfTautomers>
1

> <PUBCHEM_ATOM_DEF_STEREO_COUNT>
2

> <PUBCHEM_ATOM_UDEF_STEREO_COUNT>
0

> <PUBCHEM_BOND_DEF_STEREO_COUNT>
0

> <PUBCHEM_BOND_UDEF_STEREO_COUNT>
0

> <PUBCHEM_CACTVS_TAUTO_COUNT>
2

> <PUBCHEM_COMPONENT_COUNT>
1

> <PUBCHEM_COMPOUND_CID>
159055

> <PUBCHEM_CONFORMER_DIVERSEORDER>
1

> <PUBCHEM_CONFORMER_ID>
00026D4F00000001

> <PUBCHEM_CONFORMER_RMSD>
0.4

> <PUBCHEM_COORDINATE_TYPE>
2
5
10

> <PUBCHEM_EFFECTIVE_ROTOR_COUNT>
0.8

> <PUBCHEM_FEATURE_SELFOVERLAP>
15.223

> <PUBCHEM_HEAVY_ATOM_COUNT>
11

> <PUBCHEM_ISOTOPIC_ATOM_COUNT>
0

> <PUBCHEM_MMFF94_ENERGY>
45.5559

> <PUBCHEM_MMFF94_PARTIAL_CHARGES>
4
1 -0.57
3 0.06
7 0.06
8 0.45

> <PUBCHEM_PHARMACOPHORE_FEATURES>
3
1 1 acceptor
3 2 9 10 hydrophobe
7 2 3 4 5 6 7 8 rings

> <PUBCHEM_SHAPE_FINGERPRINT>
10702982 57 17059765714998756366
12423570 1 12422631371166221126
13024252 1 15800102487933614696
137420 1 14041462299427463767
15557651 10 18343009008662726072
16945 1 18270977781365510386
369184 2 15648437035393806496
5084963 1 18337934723750752232
68250623 7 16696424186418110912

> <PUBCHEM_SHAPE_MULTIPOLES>
220.51
2.05
1.72
1.52
0.05
0.02
-0.01
0.43
-0.35
0.01
0.3
-0.11
0.07
0.31

> <PUBCHEM_SHAPE_SELFOVERLAP>
469.959

> <PUBCHEM_SHAPE_VOLUME>
131.3

> <RelativeEnergy>
0

> <StereoisomerIndex>
1

> <TautomerIndex>
1

> <POSE_NUMBER>
1

> <LibDockScore>
69.2022

> <HotSpots>
4.81,0.47,-1.05,A,56,6
6.61,-0.93,-0.06,A,65,7
6.01,1.67,2.54,A,83,11

> <-In-Situ Starting Energy>
-292.160518

> <-In-Situ Final Energy>
-24.3147963

> <In-Situ Gradient>
0.0009279137244

$$$$
160602
  SciTegic09142310043D

 20 20  0  0  0  0            999 V2000
   10.2485    8.3342   -7.0927 O   0  0  0  1  0  0
    8.9355    7.8592   -5.0216 N   0  0  0  1  0  0
    7.1756    8.4915   -3.5186 C   0  0  0  1  0  0
    6.7218    9.2259   -2.2899 C   0  0  0  1  0  0
    8.5520    8.8808   -4.0595 C   0  0  0  1  0  0
    6.1374    8.5201   -1.2454 C   0  0  0  1  0  0
    6.8817   10.5955   -2.1582 C   0  0  0  1  0  0
    5.9219    9.1284   -0.0218 C   0  0  0  1  0  0
    6.6360   11.2179   -0.9417 C   0  0  0  1  0  0
    6.2270   10.4654    0.1456 C   0  0  0  1  0  0
    9.6147    8.1252   -6.0964 C   0  0  0  1  0  0
    6.4140    8.5608   -4.2961 H   0  0
    7.2880    7.4537   -3.2183 H   0  0
    8.5512    9.8431   -4.5620 H   0  0
    9.3168    8.8821   -3.2816 H   0  0
    5.9133    7.4681   -1.3544 H   0  0
    7.2216   11.1556   -3.0066 H   0  0
    5.5536    8.5516    0.8085 H   0  0
    6.8114   12.2765   -0.8194 H   0  0
    6.1563   10.9083    1.1279 H   0  0
  1 11  2  0
  2  5  1  0
  2 11  2  0
  3  4  1  0
  3  5  1  0
  4  6  2  0
  4  7  1  0
  6  8  1  0
  7  9  2  0
  8 10  2  0
  9 10  1  0
  3 12  1  0
  3 13  1  0
  5 14  1  0
  5 15  1  0
  6 16  1  0
  7 17  1  0
  8 18  1  0
  9 19  1  0
 10 20  1  0
M  END
> <Name>
160602

> <Binding Energy>
-19.2189

> <Ligand Energy>
4.9255

> <Protein Energy>
-7801.1566

> <Complex Energy>
-7815.4501

> <Complex Entropy>
-31.4761

> <Protein Entropy>
-31.4717

> <Ligand Entropy>
-17.5653

> <Entropic Energy>
17.5609

> <AbsoluteEnergy>
12.1027

> <ConfNumber>
8

> <Ionization pH>
6.61_D

> <IonizationIndex>
2

> <MOL_NUMBER>
92

> <NumberOfIonizations>
2

> <NumberOfStereoisomers>
1

> <NumberOfTautomers>
1

> <PUBCHEM_ATOM_DEF_STEREO_COUNT>
0

> <PUBCHEM_ATOM_UDEF_STEREO_COUNT>
0

> <PUBCHEM_BOND_DEF_STEREO_COUNT>
0

> <PUBCHEM_BOND_UDEF_STEREO_COUNT>
0

> <PUBCHEM_CACTVS_TAUTO_COUNT>
1

> <PUBCHEM_COMPONENT_COUNT>
1

> <PUBCHEM_COMPOUND_CID>
160602

> <PUBCHEM_CONFORMER_DIVERSEORDER>
2
16
4
17
11
13
1
9
14
5
6
15
12
10
8
7
3

> <PUBCHEM_CONFORMER_ID>
0002735A00000002

> <PUBCHEM_CONFORMER_RMSD>
0.6

> <PUBCHEM_COORDINATE_TYPE>
2
5
10

> <PUBCHEM_EFFECTIVE_ROTOR_COUNT>
3

> <PUBCHEM_FEATURE_SELFOVERLAP>
10.148

> <PUBCHEM_HEAVY_ATOM_COUNT>
11

> <PUBCHEM_ISOTOPIC_ATOM_COUNT>
0

> <PUBCHEM_MMFF94_ENERGY>
20.3188

> <PUBCHEM_MMFF94_PARTIAL_CHARGES>
16
1 -0.49
10 -0.15
11 0.79
16 0.15
17 0.15
18 0.15
19 0.15
2 -0.55
20 0.15
3 0.14
4 -0.14
5 0.25
6 -0.15
7 -0.15
8 -0.15
9 -0.15

> <PUBCHEM_PHARMACOPHORE_FEATURES>
2
1 2 acceptor
6 4 6 7 8 9 10 rings

> <PUBCHEM_SHAPE_FINGERPRINT>
10149128 111 11023823998423327458
10857977 72 16343156843090983313
11127187 94 15285358427082721523
11769659 78 18337389473674211679
12251169 10 18131634486744605736
12382932 28 17988363676438663642
12897270 3 12757154601351486504
12932764 1 18340496663105818189
13024252 1 15936412195914316485
14577589 140 18336265635214456205
15076042 46 18059870462322038409
16945 1 18059591173662971133
20281407 28 18260545602504448844
20361792 2 17967811660868879404
20645464 45 15626229017393323828
20653085 51 9294750717223464027
20711985 344 16951667134840957772
22445834 79 18341337793816632811
23402539 116 18342170026305828581
23552423 10 17836652190323599349
27216 239 13901605485700559722
369184 2 18059859514682437965
528716 315 11819281061393998819

> <PUBCHEM_SHAPE_MULTIPOLES>
215.52
5.51
1.47
1.03
4.42
0.15
0
-2.42
1.87
-0.04
-0.13
-0.34
0
-0.63

> <PUBCHEM_SHAPE_SELFOVERLAP>
441.579

> <PUBCHEM_SHAPE_VOLUME>
123

> <RelativeEnergy>
0.140217

> <StereoisomerIndex>
1

> <TautomerIndex>
1

> <POSE_NUMBER>
1

> <LibDockScore>
86.4365

> <HotSpots>
8.81,8.07,-6.66,P,48,1
5.81,8.67,-0.66,A,61,6
6.21,10.67,0.94,A,74,10

> <-In-Situ Starting Energy>
-246.33408

> <-In-Situ Final Energy>
16.0987759

> <In-Situ Gradient>
0.0007622896684

$$$$
16331
  SciTegic09142310043D

 28 27  0  0  0  0            999 V2000
    6.6846   11.4011   -1.9402 O   0  0  0  1  0  0
    6.4079    9.2006   -1.5731 O   0  0  0  1  0  0
    9.4372    9.2082   -5.9523 O   0  0  0  1  0  0
    6.6512   13.0788   -0.1445 C   0  0  0  1  0  0
    7.1848   13.3059    1.2844 C   0  0  0  1  0  0
    6.5800   11.5789   -0.5265 C   0  0  0  1  0  0
    7.1056    9.8653   -3.7621 C   0  0  0  1  0  0
    8.5010    9.2126   -3.7484 C   0  0  0  1  0  0
    6.9778   14.6945    1.9171 C   0  0  0  1  0  0
    6.6884   10.1269   -2.3207 C   0  0  0  1  0  0
    8.8673    8.5935   -5.0985 C   0  0  0  1  0  0
    8.4803    7.1308   -5.2997 C   0  0  0  1  0  0
    5.6776   13.5343   -0.2026 H   0  0
    7.2346   13.6105   -0.8908 H   0  0
    8.2510   13.1553    1.3125 H   0  0
    6.7810   12.5158    1.9095 H   0  0
    5.6587   11.1092   -0.1838 H   0  0
    7.3770   11.0128   -0.0545 H   0  0
    6.3661    9.1950   -4.2005 H   0  0
    7.0735   10.7993   -4.3163 H   0  0
    8.5193    8.4090   -3.0170 H   0  0
    9.2793    9.9088   -3.4452 H   0  0
    5.9469   15.0248    1.8038 H   0  0
    7.6564   15.4562    1.5522 H   0  0
    7.2016   14.6800    2.9832 H   0  0
    9.3556    6.5774   -5.6338 H   0  0
    7.6872    7.0578   -6.0380 H   0  0
    8.1053    6.6888   -4.3804 H   0  0
  1  6  1  0
  1 10  1  0
  2 10  2  0
  3 11  2  0
  4  5  1  0
  4  6  1  0
  5  9  1  0
  7  8  1  0
  7 10  1  0
  8 11  1  0
 11 12  1  0
  4 13  1  0
  4 14  1  0
  5 15  1  0
  5 16  1  0
  6 17  1  0
  6 18  1  0
  7 19  1  0
  7 20  1  0
  8 21  1  0
  8 22  1  0
  9 23  1  0
  9 24  1  0
  9 25  1  0
 12 26  1  0
 12 27  1  0
 12 28  1  0
M  END
> <Name>
16331

> <Binding Energy>
-2.5427

> <Ligand Energy>
-36.5946

> <Protein Energy>
-7801.1566

> <Complex Energy>
-7840.2939

> <Complex Entropy>
-31.477

> <Protein Entropy>
-31.4717

> <Ligand Entropy>
-18.1181

> <Entropic Energy>
18.1127

> <AbsoluteEnergy>
6.39947

> <ConfNumber>
5

> <IonizationIndex>
1

> <MOL_NUMBER>
93

> <NumberOfIonizations>
1

> <NumberOfStereoisomers>
1

> <NumberOfTautomers>
1

> <PUBCHEM_ATOM_DEF_STEREO_COUNT>
0

> <PUBCHEM_ATOM_UDEF_STEREO_COUNT>
0

> <PUBCHEM_BOND_DEF_STEREO_COUNT>
0

> <PUBCHEM_BOND_UDEF_STEREO_COUNT>
0

> <PUBCHEM_CACTVS_TAUTO_COUNT>
3

> <PUBCHEM_COMPONENT_COUNT>
1

> <PUBCHEM_COMPOUND_CID>
16331

> <PUBCHEM_CONFORMER_DIVERSEORDER>
1
265
56
120
125
23
110
137
201
190
133
271
270
301
44
142
151
150
210
207
251
63
273
291
121
9
60
43
177
198
288
77
199
27
256
135
197
103
108
147
206
53
45
268
99
267
2
262
295
84
29
122
232
30
124
203
209
181
64
167
69
242
59
157
152
204
289
184
105
127
298
263
24
79
192
81
178
246
6
241
47
223
80
257
224
172
145
176
299
148
261
234
74
90
109
287
8
238
83
36
193
41
160
32
50
303
96
143
16
138
67
38
130
101
252
226
40
95
123
149
159
82
4
240
35
134
171
293
258
116
264
278
253
230
57
22
182
219
97
175
39
169
183
3
180
213
185
155
166
13
119
34
87
304
113
274
98
229
5
208
76
71
21
221
10
297
15
189
163
277
245
283
254
308
250
173
156
49
179
164
285
255
211
106
227
141
244
11
139
188
20
48
200
161
42
18
37
107
307
92
73
129
136
91
220
239
25
228
275
233
205
78
279
112
165
132
290
202
131
186
54
100
88
300
70
280
46
187
65
31
296
260
72
28
104
12
216
61
111
66
214
266
89
144
7
115
102
62
237
305
231
19
306
302
217
286
243
154
51
218
281
170
117
52
196
58
158
86
248
195
153
33
191
294
194
114
118
292
174
140
14
276
235
272
282
26
94
162
55
225
17
284
212
128
247
126
146
222
215
259
269
236
68
75
168
249
85
93

> <PUBCHEM_CONFORMER_ID>
00003FCB00000001

> <PUBCHEM_CONFORMER_RMSD>
0.8

> <PUBCHEM_COORDINATE_TYPE>
2
5
10

> <PUBCHEM_EFFECTIVE_ROTOR_COUNT>
7

> <PUBCHEM_FEATURE_SELFOVERLAP>
15.223

> <PUBCHEM_HEAVY_ATOM_COUNT>
12

> <PUBCHEM_ISOTOPIC_ATOM_COUNT>
0

> <PUBCHEM_MMFF94_ENERGY>
5.5005

> <PUBCHEM_MMFF94_PARTIAL_CHARGES>
9
1 -0.43
10 0.66
11 0.45
12 0.06
2 -0.57
3 -0.57
6 0.28
7 0.06
8 0.06

> <PUBCHEM_PHARMACOPHORE_FEATURES>
3
1 2 acceptor
1 3 acceptor
1 9 hydrophobe

> <PUBCHEM_SHAPE_FINGERPRINT>
100836 57 18409735058138349100
11287383 113 16056592200905753322
11401426 45 18413669123442615828
114248 4 16845573123335652980
12815109 37 9223232944460259636
14123238 8 18410009939991931884
14251718 22 18130787884107883670
14252887 29 13840260356580134752
15501527 16 18411983585144698408
17834072 33 18131067164662144292
17834076 25 18413107273523068220
187816 3 16989128664367286946
200 152 12535351194727993718
20281389 69 18259700108454975572
20605781 2 18342176674255241464
20645477 56 18342738541597413838
20645477 70 17274551923394243334
20767249 13 7853854979486906457
20767249 213 18187365458523483892
20828058 44 11025800894396714945
21119208 17 15769773559124332808
23402539 116 18273208707801739108
23402655 69 17917428692172835964
26918003 58 12324241667675523925
2916195 48 18343576365490132576
366044 4 18410292523234183490
42788 4 18411138039407378668

> <PUBCHEM_SHAPE_MULTIPOLES>
229.35
12.78
1.17
0.59
6.1
0.06
0
-3.49
0.38
-0.45
-0.01
0.02
0
-0.06

> <PUBCHEM_SHAPE_SELFOVERLAP>
423.854

> <PUBCHEM_SHAPE_VOLUME>
144.5

> <RelativeEnergy>
1.38519

> <StereoisomerIndex>
1

> <TautomerIndex>
1

> <POSE_NUMBER>
1

> <LibDockScore>
89.4517

> <HotSpots>
6.41,11.47,-0.06,A,67,6
8.61,9.67,-3.85,A,41,8
7.21,14.67,2.35,A,81,9

> <-In-Situ Starting Energy>
-803.445444

> <-In-Situ Final Energy>
36.0233335

> <In-Situ Gradient>
0.0007644913401

$$$$
16537
  SciTegic09142310043D

 31 31  0  0  0  0            999 V2000
    7.3485    3.3750    0.9833 O   0  0  0  1  0  0
    7.9362    2.7270    3.0701 O   0  0  0  1  0  0
    5.5565    2.2103   -0.1866 C   0  0  1  1  0  0
    6.9585    2.9029   -0.3218 C   0  0  0  1  0  0
    5.3144    1.0359   -1.1462 C   0  0  0  1  0  0
    5.2066    1.8002    1.2604 C   0  0  0  1  0  0
    6.0499   -0.2452   -0.7320 C   0  0  0  1  0  0
    6.3265   -0.3825    0.7420 C   0  0  0  1  0  0
    5.8576    0.4970    1.6433 C   0  0  0  1  0  0
    8.0515    2.0280   -0.9624 C   0  0  0  1  0  0
    6.8598    4.1637   -1.2040 C   0  0  0  1  0  0
    7.3309   -1.4571    1.0607 C   0  0  0  1  0  0
    8.0577    2.6383    1.8517 C   0  0  0  1  0  0
    4.8036    2.9442   -0.4588 H   0  0
    5.5668    1.3118   -2.1712 H   0  0
    4.2504    0.8180   -1.1707 H   0  0
    5.4522    2.5766    1.9835 H   0  0
    4.1301    1.7095    1.3548 H   0  0
    5.4292   -1.0884   -1.0136 H   0  0
    6.9699   -0.3446   -1.3015 H   0  0
    6.0510    0.3627    2.6924 H   0  0
    8.2620    1.1066   -0.4271 H   0  0
    8.9660    2.6065   -1.0060 H   0  0
    7.8018    1.7582   -1.9883 H   0  0
    7.2616    5.0198   -0.6700 H   0  0
    5.8441    4.4234   -1.4828 H   0  0
    7.4110    4.0737   -2.1402 H   0  0
    8.1442   -1.4510    0.3361 H   0  0
    6.8717   -2.4439    1.0224 H   0  0
    7.7636   -1.3059    2.0487 H   0  0
    8.7450    1.9388    1.3894 H   0  0
  1  4  1  0
  1 13  1  0
  2 13  2  0
  3  4  1  0
  3  5  1  0
  3  6  1  0
  4 10  1  0
  4 11  1  0
  5  7  1  0
  6  9  1  0
  7  8  1  0
  8  9  2  0
  8 12  1  0
  3 14  1  0
  5 15  1  0
  5 16  1  0
  6 17  1  0
  6 18  1  0
  7 19  1  0
  7 20  1  0
  9 21  1  0
 10 22  1  0
 10 23  1  0
 10 24  1  0
 11 25  1  0
 11 26  1  0
 11 27  1  0
 12 28  1  0
 12 29  1  0
 12 30  1  0
 13 31  1  0
M  END
> <Name>
16537

> <Binding Energy>
-52.9214

> <Ligand Energy>
33.8624

> <Protein Energy>
-7801.1566

> <Complex Energy>
-7820.2156

> <Complex Entropy>
-31.4765

> <Protein Entropy>
-31.4717

> <Ligand Entropy>
-17.873

> <Entropic Energy>
17.8682

> <AbsoluteEnergy>
27.5098

> <ConfNumber>
13

> <IonizationIndex>
1

> <MOL_NUMBER>
95

> <NumberOfIonizations>
1

> <NumberOfStereoisomers>
1

> <NumberOfTautomers>
1

> <PUBCHEM_ATOM_DEF_STEREO_COUNT>
0

> <PUBCHEM_ATOM_UDEF_STEREO_COUNT>
1

> <PUBCHEM_BOND_DEF_STEREO_COUNT>
0

> <PUBCHEM_BOND_UDEF_STEREO_COUNT>
0

> <PUBCHEM_CACTVS_TAUTO_COUNT>
1

> <PUBCHEM_COMPONENT_COUNT>
1

> <PUBCHEM_COMPOUND_CID>
16537

> <PUBCHEM_CONFORMER_DIVERSEORDER>
1
6
3
5
4
2

> <PUBCHEM_CONFORMER_ID>
409900000001

> <PUBCHEM_CONFORMER_RMSD>
0.6

> <PUBCHEM_COORDINATE_TYPE>
2
5
10

> <PUBCHEM_EFFECTIVE_ROTOR_COUNT>
3.8

> <PUBCHEM_FEATURE_SELFOVERLAP>
15.223

> <PUBCHEM_HEAVY_ATOM_COUNT>
13

> <PUBCHEM_ISOTOPIC_ATOM_COUNT>
0

> <PUBCHEM_MMFF94_ENERGY>
29.9199

> <PUBCHEM_MMFF94_PARTIAL_CHARGES>
11
1 -0.43
12 0.14
13 0.66
2 -0.57
21 0.15
31 0.06
4 0.28
6 0.14
7 0.14
8 -0.28
9 -0.29

> <PUBCHEM_PHARMACOPHORE_FEATURES>
3
1 2 acceptor
3 4 10 11 hydrophobe
6 3 5 6 7 8 9 rings

> <PUBCHEM_SHAPE_FINGERPRINT>
10130415 120 18113619010330337689
10857977 72 18341612641954295769
11031198 65 17203609289664702852
11062470 55 17131834270188829995
11132069 177 18412265030330821079
11401426 45 18411974759551251661
12119455 92 17275097319240948549
12251169 10 18260261966948224248
12382932 28 18412263964767644075
12932764 1 17561370564916771711
13538477 17 17968103082910817007
13581323 91 18335134289083204544
14344429 50 17385730205277135380
14943859 89 12319732587548512357
15219456 202 18059293158424253694
15775835 57 17489866042191375271
16945 1 18342184392348428237
170605 34 15985101937867139248
17846911 113 18342736312915543217
1813 80 16444187496635132866
18175812 5 17846212306097527516
18186145 218 17131844127223209345
19026448 4 16200161988865848661
19026448 5 15502385521605394175
200 152 14851603280347678865
20201158 50 18131631188157014003
20279233 1 18060422421596515607
20510252 161 18271244911531722121
20528008 55 18202558480120674627
20559304 39 18259991465523388172
20645464 45 17847061094920128047
20645477 70 13479134588183483417
20671657 53 13335010544206920066
21501502 16 18192996152100770901
21501925 9 18260265248282139405
21730867 7 17918275337791028982
22445834 79 17531237331770739474
23402539 116 18341600526120455983
23557571 272 17703230732043504679
23559900 14 18341337699718009118
2748010 2 18048322145951254589
3248919 1 18408327696071009199
369184 2 17632574929426045599
5084963 1 18268441139410457781
53812653 166 18060136552572790714
6333449 129 18131343142170620727
69090 78 18060413612808671215
7364860 26 18410582816089846564
77492 1 17676209086707262500

> <PUBCHEM_SHAPE_MULTIPOLES>
255.8
6.39
1.36
1.02
2
0.14
-0.01
-0.23
1.36
0.22
-0.21
-0.86
-0.08
0.05

> <PUBCHEM_SHAPE_SELFOVERLAP>
512.558

> <PUBCHEM_SHAPE_VOLUME>
149.3

> <RelativeEnergy>
6.39951

> <StereoisomerIndex>
1

> <TautomerIndex>
1

> <POSE_NUMBER>
1

> <LibDockScore>
79.8296

> <HotSpots>
6.21,0.27,3.35,A,87,6
6.01,0.67,0.55,A,70,7
7.81,4.27,4.14,A,90,13

> <-In-Situ Starting Energy>
-548.022355

> <-In-Situ Final Energy>
-6.86671361

> <In-Situ Gradient>
0.0009572846334

$$$$
16741
  SciTegic09142310043D

 20 20  0  0  0  0            999 V2000
   10.4238    5.6170   -4.7417 S   0  0  0  1  0  0
    8.9409    8.1577   -5.2275 N   0  0  0  1  0  0
    7.1895    8.5198   -3.5818 C   0  0  0  1  0  0
    6.7179    9.2198   -2.3366 C   0  0  0  1  0  0
    8.5507    8.9859   -4.0983 C   0  0  0  1  0  0
    6.1484    8.4875   -1.3026 C   0  0  0  1  0  0
    6.8595   10.5901   -2.1767 C   0  0  0  1  0  0
    5.9307    9.0723   -0.0661 C   0  0  0  1  0  0
    6.6171   11.1869   -0.9471 C   0  0  0  1  0  0
    6.2153   10.4110    0.1256 C   0  0  0  1  0  0
    9.5677    7.0350   -5.0269 C   0  0  0  1  0  0
    6.4272    8.5934   -4.3581 H   0  0
    7.3347    7.4750   -3.3232 H   0  0
    8.5241   10.0071   -4.4577 H   0  0
    9.3315    8.9005   -3.3401 H   0  0
    5.9419    7.4339   -1.4288 H   0  0
    7.1842   11.1772   -3.0127 H   0  0
    5.5791    8.4779    0.7591 H   0  0
    6.7868   12.2440   -0.8054 H   0  0
    6.1353   10.8383    1.1140 H   0  0
  1 11  2  0
  2  5  1  0
  2 11  2  0
  3  4  1  0
  3  5  1  0
  4  6  2  0
  4  7  1  0
  6  8  1  0
  7  9  2  0
  8 10  2  0
  9 10  1  0
  3 12  1  0
  3 13  1  0
  5 14  1  0
  5 15  1  0
  6 16  1  0
  7 17  1  0
  8 18  1  0
  9 19  1  0
 10 20  1  0
M  END
> <Name>
16741

> <Binding Energy>
-16.5112

> <Ligand Energy>
4.0692

> <Protein Energy>
-7801.1566

> <Complex Energy>
-7813.5987

> <Complex Entropy>
-31.4766

> <Protein Entropy>
-31.4717

> <Ligand Entropy>
-17.8923

> <Entropic Energy>
17.8875

> <AbsoluteEnergy>
16.8978

> <ConfNumber>
31

> <Ionization pH>
6.61_D

> <IonizationIndex>
2

> <MOL_NUMBER>
103

> <NumberOfIonizations>
2

> <NumberOfStereoisomers>
1

> <NumberOfTautomers>
1

> <PUBCHEM_ATOM_DEF_STEREO_COUNT>
0

> <PUBCHEM_ATOM_UDEF_STEREO_COUNT>
0

> <PUBCHEM_BOND_DEF_STEREO_COUNT>
0

> <PUBCHEM_BOND_UDEF_STEREO_COUNT>
0

> <PUBCHEM_CACTVS_TAUTO_COUNT>
1

> <PUBCHEM_COMPONENT_COUNT>
1

> <PUBCHEM_COMPOUND_CID>
16741

> <PUBCHEM_CONFORMER_DIVERSEORDER>
1
10
5
13
12
14
2
4
17
8
11
15
18
6
7
9
3
16

> <PUBCHEM_CONFORMER_ID>
416500000001

> <PUBCHEM_CONFORMER_RMSD>
0.6

> <PUBCHEM_COORDINATE_TYPE>
2
5
10

> <PUBCHEM_EFFECTIVE_ROTOR_COUNT>
3

> <PUBCHEM_FEATURE_SELFOVERLAP>
15.228

> <PUBCHEM_HEAVY_ATOM_COUNT>
11

> <PUBCHEM_ISOTOPIC_ATOM_COUNT>
0

> <PUBCHEM_MMFF94_ENERGY>
20.4756

> <PUBCHEM_MMFF94_PARTIAL_CHARGES>
16
1 -0.27
10 -0.15
11 0.57
16 0.15
17 0.15
18 0.15
19 0.15
2 -0.55
20 0.15
3 0.14
4 -0.14
5 0.25
6 -0.15
7 -0.15
8 -0.15
9 -0.15

> <PUBCHEM_PHARMACOPHORE_FEATURES>
3
1 1 acceptor
1 2 acceptor
6 4 6 7 8 9 10 rings

> <PUBCHEM_SHAPE_FINGERPRINT>
10149128 111 18272656735916705473
10465860 228 18199475363685629635
11086676 242 17967806116140251828
12138202 97 15912756331917603390
12251169 10 18040152920369488771
12897270 3 13110958755761856155
12932764 1 17385437722056918191
13764800 53 18201170926753987283
14252887 29 12685103570050012709
15775835 57 18410294743631866889
18186145 218 17987808401903088661
20233049 118 18131630075766103848
20281407 28 12613026171944107171
20361792 2 11169916112816981875
20711983 171 18272649099285303678
20767249 442 18131633374548679145
22485316 2 11169914991782843347
230 275 18272092647643781397
23402539 116 17060327522622894984
23402655 69 12175356794042945227
23557571 272 16988276603138224887
276578 36 18411141324614326482
94968 8 8862645907419348129

> <PUBCHEM_SHAPE_MULTIPOLES>
225.24
6.36
1.53
1.07
6.85
0.2
0.06
-3.3
2
-0.04
-0.13
-0.47
-0.05
-0.56

> <PUBCHEM_SHAPE_SELFOVERLAP>
448.981

> <PUBCHEM_SHAPE_VOLUME>
133.5

> <RelativeEnergy>
4.81517

> <StereoisomerIndex>
1

> <TautomerIndex>
1

> <POSE_NUMBER>
1

> <LibDockScore>
81.4578

> <HotSpots>
7.21,9.27,-3.25,A,45,5
5.81,9.67,0.14,A,68,6
8.41,8.07,-4.86,A,38,11

> <-In-Situ Starting Energy>
-5.68463575

> <-In-Situ Final Energy>
15.7684459

> <In-Situ Gradient>
0.0008690084197

$$$$
18735
  SciTegic09142310043D

 32 32  0  0  0  0            999 V2000
    7.2310    3.3579   -1.4132 Br  0  0  0  1  0  0
    8.9686    0.9374    1.4478 O   0  0  0  1  0  0
    4.3299    1.7206    0.5838 O   0  0  0  1  0  0
    6.7884    4.3339    3.5566 O   0  0  0  1  0  0
    7.8695    2.6288    2.3942 N   0  0  0  1  0  0
    5.5626    2.8806    2.1236 N   0  0  0  1  0  0
    6.6424    0.9883    0.9520 C   0  0  2  1  0  0
    6.3510   -0.3836    1.6108 C   0  0  0  1  0  0
    6.9581    0.6700   -0.5479 C   0  0  0  1  0  0
    7.9260    1.5276    1.6130 C   0  0  0  1  0  0
    5.3986    1.9059    1.1818 C   0  0  0  1  0  0
    7.3860   -1.4956    1.2825 C   0  0  0  1  0  0
    6.0926   -0.3185    3.1242 C   0  0  0  1  0  0
    6.7237    3.2835    2.6980 C   0  0  0  1  0  0
    6.6529    1.5824   -1.6940 C   0  0  0  1  0  0
    9.1647    3.1048    2.9338 C   0  0  0  1  0  0
    5.9891    1.0949   -2.7593 C   0  0  0  1  0  0
    6.0123    4.5177    4.0869 H   0  0
    5.4355   -0.6813    1.1313 H   0  0
    6.4385   -0.2576   -0.7918 H   0  0
    8.0113    0.4054   -0.6569 H   0  0
    8.2469   -1.4256    1.9387 H   0  0
    7.7843   -1.4846    0.2722 H   0  0
    6.9639   -2.4918    1.3713 H   0  0
    5.4631    0.5137    3.4331 H   0  0
    7.0376   -0.2728    3.6376 H   0  0
    5.6149   -1.2100    3.5047 H   0  0
    9.8251    3.4063    2.1262 H   0  0
    9.7170    2.3176    3.4324 H   0  0
    9.0653    3.9300    3.6394 H   0  0
    5.7687    1.6653   -3.6329 H   0  0
    5.6504    0.0755   -2.7937 H   0  0
  1 15  1  0
  2 10  2  0
  3 11  2  0
  4 14  1  0
  5 10  1  0
  5 14  1  0
  5 16  1  0
  6 11  1  0
  6 14  2  0
  7  8  1  0
  7  9  1  0
  7 10  1  0
  7 11  1  0
  8 12  1  0
  8 13  1  0
  9 15  1  0
 15 17  2  0
  4 18  1  0
  8 19  1  0
  9 20  1  0
  9 21  1  0
 12 22  1  0
 12 23  1  0
 12 24  1  0
 13 25  1  0
 13 26  1  0
 13 27  1  0
 16 28  1  0
 16 29  1  0
 16 30  1  0
 17 31  1  0
 17 32  1  0
M  END
> <Name>
18735

> <Binding Energy>
-37.0883

> <Ligand Energy>
38.6411

> <Protein Energy>
-7801.1566

> <Complex Energy>
-7799.6039

> <Complex Entropy>
-31.4797

> <Protein Entropy>
-31.4717

> <Ligand Entropy>
-19.0088

> <Entropic Energy>
19.0008

> <AbsoluteEnergy>
25.788

> <ConfNumber>
1

> <Ionization pH>
7.9_P

> <IonizationIndex>
1

> <MOL_NUMBER>
115

> <NumberOfIonizations>
2

> <NumberOfStereoisomers>
1

> <NumberOfTautomers>
3

> <PUBCHEM_ATOM_DEF_STEREO_COUNT>
0

> <PUBCHEM_ATOM_UDEF_STEREO_COUNT>
1

> <PUBCHEM_BOND_DEF_STEREO_COUNT>
0

> <PUBCHEM_BOND_UDEF_STEREO_COUNT>
0

> <PUBCHEM_CACTVS_TAUTO_COUNT>
3

> <PUBCHEM_COMPONENT_COUNT>
1

> <PUBCHEM_COMPOUND_CID>
18735

> <PUBCHEM_CONFORMER_DIVERSEORDER>
1
24
10
4
25
16
9
18
23
7
11
17
15
14
19
12
8
22
5
13
20
21
2
3
6

> <PUBCHEM_CONFORMER_ID>
0000492F00000001

> <PUBCHEM_CONFORMER_RMSD>
0.6

> <PUBCHEM_COORDINATE_TYPE>
2
5
10

> <PUBCHEM_EFFECTIVE_ROTOR_COUNT>
3.6

> <PUBCHEM_FEATURE_SELFOVERLAP>
35.522

> <PUBCHEM_HEAVY_ATOM_COUNT>
17

> <PUBCHEM_ISOTOPIC_ATOM_COUNT>
0

> <PUBCHEM_MMFF94_ENERGY>
56.7256

> <PUBCHEM_MMFF94_PARTIAL_CHARGES>
17
1 -0.11
10 0.57
11 0.57
14 0.69
15 -0.03
16 0.3
17 -0.3
2 -0.57
27 0.37
3 -0.57
31 0.15
32 0.15
4 -0.57
5 -0.42
6 -0.49
7 0.12
9 0.14

> <PUBCHEM_PHARMACOPHORE_FEATURES>
7
1 1 hydrophobe
1 2 acceptor
1 3 acceptor
1 4 acceptor
1 6 donor
3 8 12 13 hydrophobe
6 5 6 7 10 11 14 rings

> <PUBCHEM_SHAPE_FINGERPRINT>
10702982 57 17760935038919449533
11578080 2 18115569543884750709
12138202 97 17842008679844904453
12326174 3 17840297045325351929
12423570 1 13942618566454256969
13024252 1 13479719575450517756
13299463 15 17241618401493454023
141345 1 8214151780124220357
14617773 55 18188497860936816738
14817 1 11390889585798551657
15881359 60 16517377556846219232
15906896 17 18123474882274822197
16945 1 18261115179191520307
19765921 60 14562798980648636119
20711985 344 18200041642006577305
23419403 2 17759475145376286844
23557571 272 18131062710949915616
25 1 14057267637379850375
353137 74 15719656693928012599
576247 118 18273216438616297079
5845 1 13876010547228070449
81228 2 18200319805616432441

> <PUBCHEM_SHAPE_MULTIPOLES>
328.22
3.81
2.43
2.08
0.07
2.18
0.11
-3.25
0.57
0.42
-0.48
-0.19
-0.3
0.29

> <PUBCHEM_SHAPE_SELFOVERLAP>
666.731

> <PUBCHEM_SHAPE_VOLUME>
194.7

> <RelativeEnergy>
0

> <StereoisomerIndex>
1

> <TautomerIndex>
3

> <POSE_NUMBER>
1

> <LibDockScore>
81.4613

> <HotSpots>
7.61,-2.13,0.94,A,72,12
9.21,2.67,2.54,A,84,16
7.21,1.27,-2.85,A,46,17

> <-In-Situ Starting Energy>
-771.459343

> <-In-Situ Final Energy>
21.4113817

> <In-Situ Gradient>
0.0008132430826

$$$$
19649
  SciTegic09142310043D

 81 83  0  0  0  0            999 V2000
   11.9561    1.0210  -10.4855 O   0  0  0  1  0  0
   10.4272    2.7679  -10.7403 O   0  0  0  1  0  0
   12.7395    2.3880  -13.2641 O   0  0  0  1  0  0
   13.6969    0.3124  -13.1630 O   0  0  0  1  0  0
   10.7883    3.7285  -14.1514 O   0  0  0  1  0  0
   12.4136   -0.5665   -7.2741 O   0  0  0  1  0  0
   14.7941    2.0291  -10.4785 O   0  0  0  1  0  0
   13.6820   -0.8423  -10.7479 O   0  0  0  1  0  0
   16.0121    1.1081  -16.3706 O   0  0  0  1  0  0
   15.5201   -1.5973  -15.7703 O   0  0  0  1  0  0
    8.1461    1.8886  -13.0037 O   0  0  0  1  0  0
   12.0185   -1.4781  -12.7468 O   0  0  0  1  0  0
   13.1828    2.0198   -7.1415 N   0  3  0  1  0  0
   15.1441   -0.1204   -7.4876 N   0  0  0  1  0  0
   15.3538    2.3399  -13.1707 N   0  3  0  1  0  0
   13.5582    2.9087   -5.0332 N   0  0  0  1  0  0
   13.5224    4.3403   -6.8567 N   0  0  0  1  0  0
   17.4152    0.4972   -7.3818 N   0  0  0  1  0  0
   16.3490   -0.2821   -5.5436 N   0  0  0  1  0  0
   11.5230    1.9634  -12.6567 C   0  0  2  1  0  0
   12.0681    1.0280   -9.0749 C   0  0  2  1  0  0
   10.3665    2.8715  -13.1022 C   0  0  1  1  0  0
   11.6466    2.2152  -11.1565 C   0  0  2  1  0  0
   13.1657    2.0147   -8.6036 C   0  0  2  1  0  0
   12.4128   -0.4229   -8.6897 C   0  0  1  1  0  0
   14.5884    1.6375   -9.1106 C   0  0  1  1  0  0
    9.9401    3.5733  -11.7914 C   0  0  2  1  0  0
   13.7671   -0.7985   -9.3368 C   0  0  2  1  0  0
   14.9084    0.1385   -8.9023 C   0  0  2  1  0  0
   13.4014    1.3926  -14.0130 C   0  0  2  1  0  0
   14.7861    1.8624  -14.4357 C   0  0  2  1  0  0
   15.5788    0.7030  -15.0885 C   0  0  1  1  0  0
   14.7278   -0.5755  -15.2013 C   0  0  2  1  0  0
   14.0850   -0.8854  -13.8230 C   0  0  2  1  0  0
   10.5260    4.9665  -11.6623 C   0  0  0  1  0  0
    9.1773    2.0585  -13.6438 C   0  0  0  1  0  0
   12.8194   -1.7475  -13.8848 C   0  0  0  1  0  0
   13.4186    3.1033   -6.3490 C   0  0  0  1  0  0
   16.6849    2.9542  -13.2526 C   0  0  0  1  0  0
   16.2996    0.0425   -6.8217 C   0  0  0  1  0  0
   11.6862    3.9959  -13.9943 H   0  0
   12.7814   -1.4281   -7.0368 H   0  0
   14.8840    2.9805  -10.5003 H   0  0
   13.5262    0.0513  -11.0587 H   0  0
   16.2993    0.3327  -16.8544 H   0  0
   16.1336   -1.9529  -15.1386 H   0  0
   12.5788   -1.4760  -11.9671 H   0  0
   13.0428    1.0949   -6.7692 H   0  0
   15.3311    1.5881  -12.4831 H   0  0
   14.6836    2.9968  -12.7963 H   0  0
   13.4831    1.9849   -4.6495 H   0  0
   13.7481    3.6613   -4.3999 H   0  0
   13.3856    4.5052   -7.8337 H   0  0
   13.7376    5.1325   -6.2826 H   0  0
   17.4612    0.7584   -8.3445 H   0  0
   18.2456    0.5619   -6.8014 H   0  0
   15.5475   -0.6349   -5.0625 H   0  0
   17.2336   -0.1748   -5.0712 H   0  0
   11.3075    0.9096  -12.8475 H   0  0
   11.1041    1.3042   -8.6448 H   0  0
   12.4284    2.9521  -10.9972 H   0  0
   12.8873    3.0199   -8.9117 H   0  0
   11.6298   -1.0718   -9.0945 H   0  0
   15.3186    2.1623   -8.4767 H   0  0
    8.8595    3.6745  -11.6977 H   0  0
   14.0271   -1.8078   -9.0279 H   0  0
   15.8251   -0.1374   -9.4250 H   0  0
   12.7692    1.0900  -14.8499 H   0  0
   14.6967    2.7038  -15.1209 H   0  0
   16.4614    0.4882  -14.4795 H   0  0
   13.9286   -0.3941  -15.9236 H   0  0
   14.8132   -1.3722  -13.1736 H   0  0
   11.6121    4.9656  -11.5907 H   0  0
   10.1255    5.4935  -10.7969 H   0  0
   10.2261    5.4820  -12.5648 H   0  0
    9.3333    1.6708  -14.6443 H   0  0
   13.0506   -2.8148  -13.9487 H   0  0
   12.2222   -1.4955  -14.7625 H   0  0
   16.6793    3.7639  -13.9815 H   0  0
   17.4242    2.2098  -13.5472 H   0  0
   16.9588    3.3531  -12.2751 H   0  0
  1 21  1  0
  1 23  1  0
  2 23  1  0
  2 27  1  0
  3 20  1  0
  3 30  1  0
  4 30  1  0
  4 34  1  0
  5 22  1  0
  6 25  1  0
  7 26  1  0
  8 28  1  0
  9 32  1  0
 10 33  1  0
 11 36  2  0
 12 37  1  0
 13 24  1  0
 13 38  2  0
 14 29  1  0
 14 40  2  0
 15 31  1  0
 15 39  1  0
 16 38  1  0
 17 38  1  0
 18 40  1  0
 19 40  1  0
 20 22  1  0
 20 23  1  0
 21 24  1  0
 21 25  1  0
 22 27  1  0
 22 36  1  0
 24 26  1  0
 25 28  1  0
 26 29  1  0
 27 35  1  0
 28 29  1  0
 30 31  1  0
 31 32  1  0
 32 33  1  0
 33 34  1  0
 34 37  1  0
  5 41  1  0
  6 42  1  0
  7 43  1  0
  8 44  1  0
  9 45  1  0
 10 46  1  0
 12 47  1  0
 13 48  1  0
 15 49  1  0
 15 50  1  0
 16 51  1  0
 16 52  1  0
 17 53  1  0
 17 54  1  0
 18 55  1  0
 18 56  1  0
 19 57  1  0
 19 58  1  0
 20 59  1  0
 21 60  1  0
 23 61  1  0
 24 62  1  0
 25 63  1  0
 26 64  1  0
 27 65  1  0
 28 66  1  0
 29 67  1  0
 30 68  1  0
 31 69  1  0
 32 70  1  0
 33 71  1  0
 34 72  1  0
 35 73  1  0
 35 74  1  0
 35 75  1  0
 36 76  1  0
 37 77  1  0
 37 78  1  0
 39 79  1  0
 39 80  1  0
 39 81  1  0
M  CHG  2  13   1  15   1
M  END
> <Name>
19649

> <Binding Energy>
-167.2506

> <Ligand Energy>
191.5105

> <Protein Energy>
-7801.1566

> <Complex Energy>
-7776.8968

> <Complex Entropy>
-31.4926

> <Protein Entropy>
-31.4717

> <Ligand Entropy>
-20.9285

> <Entropic Energy>
20.9076

> <AbsoluteEnergy>
86.5271

> <ConfNumber>
90

> <Ionization pH>
7.02_PDP

> <IonizationIndex>
2

> <MOL_NUMBER>
124

> <NumberOfIonizations>
5

> <NumberOfStereoisomers>
1

> <NumberOfTautomers>
3

> <PUBCHEM_ATOM_DEF_STEREO_COUNT>
15

> <PUBCHEM_ATOM_UDEF_STEREO_COUNT>
0

> <PUBCHEM_BOND_DEF_STEREO_COUNT>
0

> <PUBCHEM_BOND_UDEF_STEREO_COUNT>
0

> <PUBCHEM_CACTVS_TAUTO_COUNT>
4

> <PUBCHEM_COMPONENT_COUNT>
1

> <PUBCHEM_COMPOUND_CID>
19649

> <PUBCHEM_CONFORMER_DIVERSEORDER>
3
25
54
29
12
50
41
13
58
52
45
38
61
44
39
57
59
34
42
27
40
10
17
32
51
24
47
31
11
18
15
46
7
48
60
9
35
20
37
8
19
53
30
62
43
36
23
55
4
5
56
14
22
26
16
49
21
1
28
33
2
6

> <PUBCHEM_CONFORMER_ID>
00004CC100000003

> <PUBCHEM_CONFORMER_RMSD>
1.2

> <PUBCHEM_COORDINATE_TYPE>
2
5
10

> <PUBCHEM_EFFECTIVE_ROTOR_COUNT>
12.4

> <PUBCHEM_FEATURE_SELFOVERLAP>
152.516

> <PUBCHEM_HEAVY_ATOM_COUNT>
40

> <PUBCHEM_ISOTOPIC_ATOM_COUNT>
0

> <PUBCHEM_MMFF94_ENERGY>
124.7404

> <PUBCHEM_MMFF94_PARTIAL_CHARGES>
56
1 -0.56
10 -0.68
11 -0.57
12 -0.68
13 -0.7
14 -0.7
15 -0.9
16 -0.85
17 -0.85
18 -0.85
19 -0.85
2 -0.56
20 0.28
21 0.28
22 0.34
23 0.56
24 0.25
25 0.28
26 0.28
27 0.28
28 0.28
29 0.25
3 -0.56
30 0.56
31 0.27
32 0.28
33 0.28
34 0.28
36 0.45
37 0.28
38 0.55
39 0.27
4 -0.56
40 0.55
5 -0.68
58 0.06
59 0.4
6 -0.68
60 0.4
61 0.36
62 0.4
63 0.4
66 0.4
67 0.4
7 -0.68
71 0.4
72 0.4
73 0.4
74 0.4
75 0.4
76 0.4
77 0.4
78 0.4
79 0.4
8 -0.68
9 -0.68

> <PUBCHEM_PHARMACOPHORE_FEATURES>
30
1 1 acceptor
1 10 acceptor
1 10 donor
1 11 acceptor
1 12 acceptor
1 12 donor
1 15 cation
1 15 donor
1 16 donor
1 17 donor
1 18 donor
1 19 donor
1 2 acceptor
1 3 acceptor
1 4 acceptor
1 5 acceptor
1 5 donor
1 6 acceptor
1 6 donor
1 7 acceptor
1 7 donor
1 8 acceptor
1 8 donor
1 9 acceptor
1 9 donor
4 13 16 17 38 cation
4 14 18 19 40 cation
5 2 20 22 23 27 rings
6 21 24 25 26 28 29 rings
6 4 30 31 32 33 34 rings

> <PUBCHEM_SHAPE_FINGERPRINT>
10906281 52 18337124435859544613
11828532 37 17535192473694026547
12107698 1 18335417993628119624
12128747 34 18262798463502818414
12156800 1 17193414626568635591
12202916 173 18411977001240246911
12422481 6 17916869148735297934
12553582 1 18194146164244189757
12597179 24 18268146453019444468
12788726 201 18114174211909712433
13402501 40 18342739615312773293
13782708 43 18130790083875009118
13811026 1 18339071696695402167
140371 6 18338521940987373053
14117953 113 18342175587929170781
14659021 117 18407757053636001465
14725015 67 18336545032007361331
15361156 5 18262808478764867284
16993438 75 18341047415520612380
19315092 285 17058926852447060843
20642791 13 18270123405703418949
20764821 26 18191049947794862535
21033648 29 17988910160036488648
23559900 14 18263637544960871345
3383291 50 18334582360865600603
354706 109 18198598038990129753
4073 2 18341051822721534080
4280585 95 18335697282118401501
4403749 210 18272639157006115252
508706 21 18411710863184924886
57527452 28 16845286190252329079
6004065 56 18126837421335737087
6669772 16 18048598123538715685
7226269 152 18040151829395145579

> <PUBCHEM_SHAPE_MULTIPOLES>
717.88
13.42
5.04
2.11
23.11
2.71
0.83
-2.26
0.27
-6.88
-0.55
-0.44
-1.6
1.63

> <PUBCHEM_SHAPE_SELFOVERLAP>
1491.828

> <PUBCHEM_SHAPE_VOLUME>
400.9

> <RelativeEnergy>
11.8787

> <StereoisomerIndex>
1

> <TautomerIndex>
1

> <POSE_NUMBER>
1

> <LibDockScore>
138.4486

> <HotSpots>
16.81,-2.53,-6.66,P,47,18
16.41,-1.33,-4.66,P,61,19
18.61,6.27,-14.05,A,22,39

> <-In-Situ Starting Energy>
-703.729841

> <-In-Situ Final Energy>
-14.9110326

> <In-Situ Gradient>
0.0009657964331

$$$$
222994
  SciTegic09142310043D

 27 27  0  0  0  0            999 V2000
    4.2387    0.8918   -1.0548 O   0  0  0  1  0  0
    6.1682    1.4000    2.0078 C   0  0  2  1  0  0
    7.4306    2.2809    1.8826 C   0  0  0  1  0  0
    6.5158   -0.0926    2.1395 C   0  0  0  1  0  0
    5.1392    1.7520    0.9272 C   0  0  0  1  0  0
    6.5958   -0.8179    0.8224 C   0  0  0  1  0  0
    7.9955    2.3731    0.4553 C   0  0  0  1  0  0
    7.1446    3.6644    2.4847 C   0  0  0  1  0  0
    5.1317    0.8079   -0.2692 C   0  0  0  1  0  0
    6.0824   -0.3185   -0.3154 C   0  0  0  1  0  0
    7.5803   -1.9552    0.8557 C   0  0  0  1  0  0
    5.6751    1.6521    2.9452 H   0  0
    8.2450    1.8329    2.4476 H   0  0
    7.4503   -0.1952    2.6883 H   0  0
    5.7724   -0.5895    2.7603 H   0  0
    4.1395    1.7791    1.3521 H   0  0
    5.3141    2.7492    0.5371 H   0  0
    7.3305    2.8913   -0.2341 H   0  0
    8.2069    1.3855    0.0468 H   0  0
    8.9375    2.9159    0.4541 H   0  0
    6.4478    3.6465    3.3225 H   0  0
    6.6998    4.3242    1.7423 H   0  0
    8.0618    4.1047    2.8676 H   0  0
    6.3084   -0.7470   -1.2711 H   0  0
    7.0783   -2.8904    1.0984 H   0  0
    8.3538   -1.7948    1.6002 H   0  0
    8.0779   -2.0717   -0.1012 H   0  0
  1  9  2  0
  2  3  1  0
  2  4  1  0
  2  5  1  0
  3  7  1  0
  3  8  1  0
  4  6  1  0
  5  9  1  0
  6 10  2  0
  6 11  1  0
  9 10  1  0
  2 12  1  0
  3 13  1  0
  4 14  1  0
  4 15  1  0
  5 16  1  0
  5 17  1  0
  7 18  1  0
  7 19  1  0
  7 20  1  0
  8 21  1  0
  8 22  1  0
  8 23  1  0
 10 24  1  0
 11 25  1  0
 11 26  1  0
 11 27  1  0
M  END
> <Name>
222994

> <Binding Energy>
-51.943

> <Ligand Energy>
25.8029

> <Protein Energy>
-7801.1566

> <Complex Energy>
-7827.2967

> <Complex Entropy>
-31.4757

> <Protein Entropy>
-31.4717

> <Ligand Entropy>
-17.5028

> <Entropic Energy>
17.4988

> <AbsoluteEnergy>
19.5476

> <ConfNumber>
5

> <IonizationIndex>
1

> <MOL_NUMBER>
141

> <NumberOfIonizations>
1

> <NumberOfStereoisomers>
1

> <NumberOfTautomers>
1

> <PUBCHEM_ATOM_DEF_STEREO_COUNT>
0

> <PUBCHEM_ATOM_UDEF_STEREO_COUNT>
1

> <PUBCHEM_BOND_DEF_STEREO_COUNT>
0

> <PUBCHEM_BOND_UDEF_STEREO_COUNT>
0

> <PUBCHEM_CACTVS_TAUTO_COUNT>
8

> <PUBCHEM_COMPONENT_COUNT>
1

> <PUBCHEM_COMPOUND_CID>
222994

> <PUBCHEM_CONFORMER_DIVERSEORDER>
3
10
12
5
9
11
2
6
8
1
4
7

> <PUBCHEM_CONFORMER_ID>
3671200000003

> <PUBCHEM_CONFORMER_RMSD>
0.4

> <PUBCHEM_COORDINATE_TYPE>
2
5
10

> <PUBCHEM_EFFECTIVE_ROTOR_COUNT>
1.6

> <PUBCHEM_FEATURE_SELFOVERLAP>
15.223

> <PUBCHEM_HEAVY_ATOM_COUNT>
11

> <PUBCHEM_ISOTOPIC_ATOM_COUNT>
0

> <PUBCHEM_MMFF94_ENERGY>
15.5547

> <PUBCHEM_MMFF94_PARTIAL_CHARGES>
8
1 -0.57
10 -0.14
11 0.14
24 0.15
4 0.14
5 0.06
6 -0.28
9 0.49

> <PUBCHEM_PHARMACOPHORE_FEATURES>
3
1 1 acceptor
3 3 7 8 hydrophobe
6 2 4 5 6 9 10 rings

> <PUBCHEM_SHAPE_FINGERPRINT>
1 1 18338516451538523140
12696612 119 18411420566160440469
12932764 1 18337403668625326189
13380535 76 18191863642033615874
14325111 11 18339361984480838805
14648413 74 18337111168267223641
15775835 57 18057050313875979833
16945 1 18410008797530637644
17990270 104 18410009897100560595
19021347 11 18338233885371152246
19973954 147 18410857633745720905
20645477 70 18411975876090261783
20653091 64 18410857624870917490
20871998 22 17981890748428336982
21040471 1 18050286165670996596
21501502 16 18411419497225267193
21524375 3 18126847337835123740
23552423 10 18410013234453381037
241688 4 17834113048475651176
2748010 2 18409729560411294933
5084963 1 18130513036286790265
528862 383 18335692892614196258
63268167 104 18338521824358124033
7364860 26 18342459231489812252
81228 2 17331967123168123570

> <PUBCHEM_SHAPE_MULTIPOLES>
220.51
4.27
2.39
0.65
2.36
0.25
-0.01
-0.86
0.32
-1.41
0.09
0.05
-0.02
-0.14

> <PUBCHEM_SHAPE_SELFOVERLAP>
436.845

> <PUBCHEM_SHAPE_VOLUME>
131.5

> <RelativeEnergy>
9.67354

> <StereoisomerIndex>
1

> <TautomerIndex>
1

> <POSE_NUMBER>
1

> <LibDockScore>
64.9249

> <HotSpots>
7.01,-0.53,1.54,A,78,4
6.01,1.67,2.54,A,83,5
7.81,2.67,0.94,A,73,7

> <-In-Situ Starting Energy>
-178.689704

> <-In-Situ Final Energy>
6.58391448

> <In-Situ Gradient>
0.00095422308

$$$$
246330
  SciTegic09142310043D

 33 35  0  0  0  0            999 V2000
    5.2524    2.3631    1.4577 O   0  0  0  1  0  0
    6.3824   -1.0471    0.5209 O   0  0  0  1  0  0
    8.3634   -0.4237    1.9521 O   0  0  0  1  0  0
    8.7186    3.2175   -2.2654 O   0  0  0  1  0  0
    7.4914    5.3853    4.0770 O   0  0  0  1  0  0
    8.0973    1.6859   -4.1756 O   0  0  0  1  0  0
    5.3296    1.2233    0.6315 C   0  0  2  1  0  0
    6.0639    0.0572    1.3318 C   0  0  2  1  0  0
    5.9372    1.4709   -0.7085 C   0  0  0  1  0  0
    7.3671    0.5013    1.9071 C   0  0  0  1  0  0
    7.5178    1.7977    2.2233 C   0  0  0  1  0  0
    6.3373    2.6748    2.1827 C   0  0  0  1  0  0
    6.9185    2.4317   -0.8911 C   0  0  0  1  0  0
    5.5869    0.6191   -1.7630 C   0  0  0  1  0  0
    8.7740    2.4018    2.6936 C   0  0  0  1  0  0
    6.3140    3.8160    2.8819 C   0  0  0  1  0  0
    7.6026    2.4477   -2.0785 C   0  0  0  1  0  0
    7.5141    4.3202    3.5537 C   0  0  0  1  0  0
    8.7668    3.5533    3.3883 C   0  0  0  1  0  0
    6.2631    0.6707   -2.9677 C   0  0  0  1  0  0
    7.2908    1.5772   -3.0863 C   0  0  0  1  0  0
    6.9567   -0.7293   -0.1682 H   0  0
    8.0216   -1.2893    1.7332 H   0  0
    9.3758    2.8432   -1.6885 H   0  0
    8.7220    2.3540   -3.8871 H   0  0
    4.3239    1.0229    0.3282 H   0  0
    5.4869   -0.3194    2.1694 H   0  0
    7.2115    3.1237   -0.1191 H   0  0
    4.8282   -0.1425   -1.6431 H   0  0
    9.6903    1.8781    2.4971 H   0  0
    5.4254    4.3874    2.9428 H   0  0
    9.6620    3.9555    3.8055 H   0  0
    6.0216   -0.0065   -3.7738 H   0  0
  1  7  1  0
  1 12  1  0
  2  8  1  0
  3 10  1  0
  4 17  1  0
  5 18  2  0
  6 21  1  0
  7  8  1  0
  7  9  1  0
  8 10  1  0
  9 13  2  0
  9 14  1  0
 10 11  2  0
 11 12  1  0
 11 15  1  0
 12 16  2  0
 13 17  1  0
 14 20  2  0
 15 19  2  0
 16 18  1  0
 17 21  2  0
 18 19  1  0
 20 21  1  0
  2 22  1  0
  3 23  1  0
  4 24  1  0
  6 25  1  0
  7 26  1  0
  8 27  1  0
 13 28  1  0
 14 29  1  0
 15 30  1  0
 16 31  1  0
 19 32  1  0
 20 33  1  0
M  END
> <Name>
246330

> <Binding Energy>
-21.1007

> <Ligand Energy>
2.4483

> <Protein Energy>
-7801.1566

> <Complex Energy>
-7819.809

> <Complex Entropy>
-31.4794

> <Protein Entropy>
-31.4717

> <Ligand Entropy>
-19.1561

> <Entropic Energy>
19.1484

> <AbsoluteEnergy>
37.9686

> <ConfNumber>
8

> <Ionization pH>
7.5

> <IonizationIndex>
1

> <MOL_NUMBER>
147

> <NumberOfIonizations>
1

> <NumberOfStereoisomers>
1

> <NumberOfTautomers>
2

> <PUBCHEM_ATOM_DEF_STEREO_COUNT>
0

> <PUBCHEM_ATOM_UDEF_STEREO_COUNT>
2

> <PUBCHEM_BOND_DEF_STEREO_COUNT>
0

> <PUBCHEM_BOND_UDEF_STEREO_COUNT>
0

> <PUBCHEM_CACTVS_TAUTO_COUNT>
721

> <PUBCHEM_COMPONENT_COUNT>
1

> <PUBCHEM_COMPOUND_CID>
246330

> <PUBCHEM_CONFORMER_DIVERSEORDER>
1
5
15
19
10
6
3
13
9
14
16
8
11
2
4
21
12
17
18
20
7

> <PUBCHEM_CONFORMER_ID>
0003C23A00000001

> <PUBCHEM_CONFORMER_RMSD>
0.6

> <PUBCHEM_COORDINATE_TYPE>
2
5
10

> <PUBCHEM_EFFECTIVE_ROTOR_COUNT>
1.6

> <PUBCHEM_FEATURE_SELFOVERLAP>
50.783

> <PUBCHEM_HEAVY_ATOM_COUNT>
21

> <PUBCHEM_ISOTOPIC_ATOM_COUNT>
0

> <PUBCHEM_MMFF94_ENERGY>
57.762

> <PUBCHEM_MMFF94_PARTIAL_CHARGES>
31
1 -0.36
10 0.42
11 0.09
12 0.08
13 -0.15
14 -0.15
15 -0.15
16 -0.15
17 0.08
18 0.08
19 -0.15
2 -0.68
20 -0.15
21 0.08
24 0.15
25 0.15
26 0.15
27 0.15
28 0.4
29 0.15
3 -0.57
30 0.15
31 0.45
32 0.45
33 0.45
4 -0.53
5 -0.53
6 -0.53
7 0.42
8 0.34
9 -0.14

> <PUBCHEM_PHARMACOPHORE_FEATURES>
10
1 1 acceptor
1 2 acceptor
1 2 donor
1 3 acceptor
1 4 donor
1 5 donor
1 6 donor
6 1 7 8 10 11 12 rings
6 11 12 15 16 18 19 rings
6 9 13 14 17 20 21 rings

> <PUBCHEM_SHAPE_FINGERPRINT>
10319926 262 18339908408053954330
10411042 1 17832428970689095579
10498660 4 18338794507938037509
10608611 8 18272651289871774224
10646746 165 18411136956927901054
11132069 177 18408886269320854509
11543360 7 16845280644942997541
11796584 16 18409455765738826174
12173636 292 18337106761984128213
12236239 1 17095522924546257454
12390115 104 18270131115101182281
12403259 415 18272936037307752384
12403814 3 17022617572736317301
12500047 106 18411702092893342030
12596602 18 16660653993659630296
12916748 109 18408610270696529939
13140716 1 17973733768457475307
13544592 145 18270974444471593798
13544653 18 11674892095096932501
13583140 156 17988646345617178206
14178342 30 18188204411570809522
14251757 17 18201721738676201440
15042514 8 18191312791647249835
15196674 1 18337111168277851031
15219456 202 18059859514650789510
15375358 24 18273495684594580574
16945 1 18335709381378988311
18186145 218 18201446839304840201
200 152 15770064912631377814
20510252 161 18343023285592817777
20645477 56 18412549820695275599
20645477 70 17060068016820648574
21033648 29 18201993348129071864
21065201 7 18409450319076391650
212916 134 18335411370440272874
22122407 14 15574724564708253661
23227448 37 18340204210414108829
23402539 116 18411976970662908844
23557571 272 18342182223099929774
23558518 356 17971197172939869597
23559900 14 18413114940145336446
2916195 48 18342171176544550616
351380 180 18273494572403792108
3545911 37 18343868822465863444
4028521 119 18271808995208517301
474 4 17603592902234397167
495365 180 17489296487053025738
5104073 3 18262523564030594939
59755656 520 18334009471519060039
633830 44 18412257324637428428
69090 78 18201719574055057543
7364860 26 18050001095706796179
77492 1 17022900202948648718
7808743 9 18261397775566684812
9709674 26 18272372022175957598
9862522 239 17459453490806840669

> <PUBCHEM_SHAPE_MULTIPOLES>
396.95
10.48
2.25
1.07
4.35
0.44
-0.12
-5.41
0.91
-2.62
-0.38
1.16
0.07
1.15

> <PUBCHEM_SHAPE_SELFOVERLAP>
881.276

> <PUBCHEM_SHAPE_VOLUME>
210.5

> <RelativeEnergy>
10.856

> <StereoisomerIndex>
1

> <TautomerIndex>
2

> <POSE_NUMBER>
1

> <LibDockScore>
94.5826

> <HotSpots>
7.01,-0.53,1.54,A,78,8
8.81,3.67,3.75,A,88,19
7.21,1.27,-2.85,A,46,20

> <-In-Situ Starting Energy>
-990.109045

> <-In-Situ Final Energy>
10.6569746

> <In-Situ Gradient>
0.00091809706

$$$$
259327
  SciTegic09142310043D

 59 58  0  0  0  0            999 V2000
   12.3900    2.8289  -11.0013 O   0  0  0  1  0  0
   12.0547    7.0752   -8.9136 O   0  0  0  1  0  0
   11.8408    4.4519  -15.7614 O   0  5  0  1  0  0
   13.3873    3.0122  -15.3017 O   0  0  0  1  0  0
   12.6013    4.9378   -9.4955 N   0  0  0  1  0  0
   12.0429    4.1315  -12.8601 N   0  0  0  1  0  0
   13.6118    6.7430   -6.7417 N   0  0  0  1  0  0
   12.5765    5.2130  -10.8987 C   0  0  1  1  0  0
   13.8868    5.8908  -11.3413 C   0  0  0  1  0  0
   15.1927    5.2171  -10.8721 C   0  0  0  1  0  0
   11.5647    3.1653  -13.7937 C   0  0  1  1  0  0
   10.0354    3.3609  -13.9046 C   0  0  0  1  0  0
   12.9487    5.5813   -7.2658 C   0  0  1  1  0  0
   11.7830    5.0939   -6.4085 C   0  0  0  1  0  0
   12.3433    3.9020  -11.5909 C   0  0  0  1  0  0
    9.1813    2.2761  -13.2453 C   0  0  0  1  0  0
   12.1754    4.3153   -5.1465 C   0  0  0  1  0  0
   12.4598    5.9497   -8.6453 C   0  0  0  1  0  0
   15.6812    4.1372  -11.8477 C   0  0  0  1  0  0
   16.2656    6.2876  -10.6707 C   0  0  0  1  0  0
    9.5868    1.9409  -11.8092 C   0  0  0  1  0  0
    7.6908    2.6334  -13.3302 C   0  0  0  1  0  0
   13.0082    3.0625   -5.4661 C   0  0  0  1  0  0
   12.8437    5.1597   -4.0520 C   0  0  0  1  0  0
   12.3217    3.5686  -15.0538 C   0  0  0  1  0  0
   12.7998    3.9932   -9.2290 H   0  0
   12.2199    5.0106  -13.2974 H   0  0
   13.8011    6.6491   -5.7622 H   0  0
   13.0804    7.6075   -6.8908 H   0  0
   11.7029    5.8420  -11.0763 H   0  0
   13.8460    6.9010  -10.9422 H   0  0
   13.9336    6.0106  -12.4214 H   0  0
   15.0517    4.7386   -9.9033 H   0  0
   11.8615    2.1616  -13.4834 H   0  0
    9.7504    3.3640  -14.9505 H   0  0
    9.7527    4.3454  -13.5286 H   0  0
   13.7075    4.8063   -7.3683 H   0  0
   11.1257    5.9284   -6.1601 H   0  0
   11.1961    4.4062   -7.0172 H   0  0
    9.3535    1.3871  -13.8376 H   0  0
   11.2163    3.9880   -4.7528 H   0  0
   15.9053    4.5583  -12.8260 H   0  0
   14.9458    3.3451  -11.9847 H   0  0
   16.5959    3.6696  -11.4817 H   0  0
   16.0812    6.8220   -9.7434 H   0  0
   16.2926    7.0079  -11.4875 H   0  0
   17.2518    5.8555  -10.5895 H   0  0
    9.5723    2.8227  -11.1689 H   0  0
   10.5829    1.5053  -11.7709 H   0  0
    8.9185    1.1913  -11.3890 H   0  0
    7.3700    2.7184  -14.3673 H   0  0
    7.4865    3.5860  -12.8427 H   0  0
    7.0708    1.8768  -12.8513 H   0  0
   14.0084    3.3213   -5.8135 H   0  0
   12.5310    2.4551   -6.2357 H   0  0
   13.1382    2.4332   -4.5872 H   0  0
   12.2378    6.0252   -3.7906 H   0  0
   13.8373    5.4990   -4.3445 H   0  0
   12.9687    4.5713   -3.1435 H   0  0
  1 15  2  0
  2 18  2  0
  3 25  1  0
  4 25  2  0
  5  8  1  0
  5 18  1  0
  6 11  1  0
  6 15  1  0
  7 13  1  0
  8  9  1  0
  8 15  1  0
  9 10  1  0
 10 19  1  0
 10 20  1  0
 11 12  1  0
 11 25  1  0
 12 16  1  0
 13 14  1  0
 13 18  1  0
 14 17  1  0
 16 21  1  0
 16 22  1  0
 17 23  1  0
 17 24  1  0
  5 26  1  0
  6 27  1  0
  7 28  1  0
  7 29  1  0
  8 30  1  0
  9 31  1  0
  9 32  1  0
 10 33  1  0
 11 34  1  0
 12 35  1  0
 12 36  1  0
 13 37  1  0
 14 38  1  0
 14 39  1  0
 16 40  1  0
 17 41  1  0
 19 42  1  0
 19 43  1  0
 19 44  1  0
 20 45  1  0
 20 46  1  0
 20 47  1  0
 21 48  1  0
 21 49  1  0
 21 50  1  0
 22 51  1  0
 22 52  1  0
 22 53  1  0
 23 54  1  0
 23 55  1  0
 23 56  1  0
 24 57  1  0
 24 58  1  0
 24 59  1  0
M  CHG  1   3  -1
M  END
> <Name>
259327

> <Binding Energy>
-31.1692

> <Ligand Energy>
-45.4679

> <Protein Energy>
-7801.1566

> <Complex Energy>
-7877.7937

> <Complex Entropy>
-31.4842

> <Protein Entropy>
-31.4717

> <Ligand Entropy>
-19.9484

> <Entropic Energy>
19.9358

> <AbsoluteEnergy>
41.8662

> <ConfNumber>
234

> <Ionization pH>
8.17_DD

> <IonizationIndex>
2

> <MOL_NUMBER>
149

> <NumberOfIonizations>
2

> <NumberOfStereoisomers>
1

> <NumberOfTautomers>
1

> <PUBCHEM_ATOM_DEF_STEREO_COUNT>
0

> <PUBCHEM_ATOM_UDEF_STEREO_COUNT>
3

> <PUBCHEM_BOND_DEF_STEREO_COUNT>
0

> <PUBCHEM_BOND_UDEF_STEREO_COUNT>
0

> <PUBCHEM_CACTVS_TAUTO_COUNT>
4

> <PUBCHEM_COMPONENT_COUNT>
1

> <PUBCHEM_COMPOUND_CID>
259327

> <PUBCHEM_CONFORMER_DIVERSEORDER>
2
19
59
27
67
153
7
4
148
24
56
49
165
152
71
160
86
107
175
162
126
42
164
80
169
151
61
98
43
135
9
161
139
41
48
28
15
170
142
63
136
74
52
76
118
94
16
163
47
81
12
54
66
88
147
10
26
101
62
128
132
125
50
95
18
69
85
174
77
20
1
129
37
112
167
30
5
31
104
75
72
68
159
178
179
58
173
109
21
11
119
22
87
35
105
34
103
13
65
108
79
36
32
8
73
91
123
38
33
137
92
144
155
51
124
25
60
157
120
29
93
114
57
171
156
46
150
39
44
3
127
145
117
14
131
84
96
82
133
6
70
78
55
140
177
146
168
53
110
106
90
102
121
97
116
111
89
138
141
149
130
115
172
154
113
17
122
23
40
64
100
45
134
166
143
176
99
158
83

> <PUBCHEM_CONFORMER_ID>
0003F4FF00000002

> <PUBCHEM_CONFORMER_RMSD>
1.2

> <PUBCHEM_COORDINATE_TYPE>
2
5
10

> <PUBCHEM_EFFECTIVE_ROTOR_COUNT>
13

> <PUBCHEM_FEATURE_SELFOVERLAP>
60.958

> <PUBCHEM_HEAVY_ATOM_COUNT>
25

> <PUBCHEM_ISOTOPIC_ATOM_COUNT>
0

> <PUBCHEM_MMFF94_ENERGY>
40.0778

> <PUBCHEM_MMFF94_PARTIAL_CHARGES>
18
1 -0.57
11 0.36
13 0.33
15 0.57
18 0.57
2 -0.57
25 0.66
3 -0.65
37 0.37
39 0.37
4 -0.57
5 -0.73
58 0.36
59 0.36
6 -0.73
60 0.5
7 -0.99
8 0.36

> <PUBCHEM_PHARMACOPHORE_FEATURES>
12
1 1 acceptor
1 2 acceptor
1 3 acceptor
1 4 acceptor
1 5 donor
1 6 donor
1 7 cation
1 7 donor
3 10 19 20 hydrophobe
3 16 21 22 hydrophobe
3 17 23 24 hydrophobe
3 3 4 25 anion

> <PUBCHEM_SHAPE_FINGERPRINT>
10074138 170 18121759876211614178
10764073 3 16955889131249019298
11833330 49 17906450287650248322
12403259 415 18335989670601963836
12596602 18 16515684493908323200
12788726 201 17981594172436842938
14508225 48 17548969409343179198
15463212 79 18340193180848564638
20645477 56 18340210799141639856
21033648 29 18413101762970005120
21304303 282 17980442889325450670
21315764 268 18333166172392871508
23559900 14 17906165157587628203
23598288 3 17682418175078108498
238078 22 10663820801845527904
25019877 29 18130237063437805055
376196 1 18043520629811801240
59755656 215 18191881028367367223
59755656 520 18341894125816431390
621550 34 18337121047082173585
633830 44 17774174387489431400
7399639 24 18336555919527754535
7808743 9 18265897050589256072
9981440 41 18335978688259552465

> <PUBCHEM_SHAPE_MULTIPOLES>
476.07
11.17
5.9
1.47
8.9
7.19
0.07
-13.27
-2.11
-0.23
2.34
-0.49
-0.25
1.25

> <PUBCHEM_SHAPE_SELFOVERLAP>
914.185

> <PUBCHEM_SHAPE_VOLUME>
291

> <RelativeEnergy>
16.6873

> <StereoisomerIndex>
1

> <TautomerIndex>
1

> <POSE_NUMBER>
4

> <LibDockScore>
111.2963

> <HotSpots>
14.01,6.27,-5.46,P,57,7
16.61,6.47,-11.46,A,30,20
7.61,3.27,-13.26,A,25,22

> <-In-Situ Starting Energy>
-387.749917

> <-In-Situ Final Energy>
42.8648493

> <In-Situ Gradient>
0.0008935737652

$$$$
261491
  SciTegic09142310043D

 27 28  0  0  0  0            999 V2000
    6.4928   -2.0549   -0.1792 O   0  0  0  1  0  0
    6.9114    1.0305    1.4222 C   0  0  1  1  0  0
    5.6411    1.2176    0.6734 C   0  0  2  1  0  0
    5.6191    0.8991    2.1335 C   0  0  0  1  0  0
    5.5632    0.1465   -0.4164 C   0  0  2  1  0  0
    7.5694   -0.2913    1.0219 C   0  0  0  1  0  0
    7.8092    2.2631    1.4758 C   0  0  0  1  0  0
    6.5806   -0.8915    0.0433 C   0  0  0  1  0  0
    5.9104    0.6899   -1.8110 C   0  0  0  1  0  0
    7.2003    3.4882    2.1872 C   0  0  0  1  0  0
    8.2401    2.6075    0.0385 C   0  0  0  1  0  0
    5.3448    2.2345    0.4141 H   0  0
    5.2354    1.6899    2.7702 H   0  0
    5.4632   -0.1188    2.4846 H   0  0
    4.5862   -0.3152   -0.4619 H   0  0
    8.5097   -0.1472    0.5034 H   0  0
    7.7292   -0.9631    1.8654 H   0  0
    8.6995    1.9692    2.0339 H   0  0
    6.9273    1.0742   -1.8630 H   0  0
    5.2392    1.5008   -2.0939 H   0  0
    5.8212   -0.0837   -2.5722 H   0  0
    6.4686    3.2706    2.9561 H   0  0
    6.7071    4.1520    1.4796 H   0  0
    7.9823    4.0409    2.7014 H   0  0
    7.4413    3.0988   -0.5178 H   0  0
    8.5336    1.7263   -0.5272 H   0  0
    9.1075    3.2490    0.0165 H   0  0
  1  8  2  0
  2  3  1  0
  2  4  1  0
  2  6  1  0
  2  7  1  0
  3  4  1  0
  3  5  1  0
  5  8  1  0
  5  9  1  0
  6  8  1  0
  7 10  1  0
  7 11  1  0
  3 12  1  0
  4 13  1  0
  4 14  1  0
  5 15  1  0
  6 16  1  0
  6 17  1  0
  7 18  1  0
  9 19  1  0
  9 20  1  0
  9 21  1  0
 10 22  1  0
 10 23  1  0
 10 24  1  0
 11 25  1  0
 11 26  1  0
 11 27  1  0
M  END
> <Name>
261491

> <Binding Energy>
-19.5073

> <Ligand Energy>
15.7346

> <Protein Energy>
-7801.1566

> <Complex Energy>
-7804.9294

> <Complex Entropy>
-31.4757

> <Protein Entropy>
-31.4717

> <Ligand Entropy>
-17.4117

> <Entropic Energy>
17.4077

> <AbsoluteEnergy>
11.8561

> <ConfNumber>
2

> <IonizationIndex>
1

> <MOL_NUMBER>
151

> <NumberOfIonizations>
1

> <NumberOfStereoisomers>
1

> <NumberOfTautomers>
1

> <PUBCHEM_ATOM_DEF_STEREO_COUNT>
3

> <PUBCHEM_ATOM_UDEF_STEREO_COUNT>
0

> <PUBCHEM_BOND_DEF_STEREO_COUNT>
0

> <PUBCHEM_BOND_UDEF_STEREO_COUNT>
0

> <PUBCHEM_CACTVS_TAUTO_COUNT>
3

> <PUBCHEM_COMPONENT_COUNT>
1

> <PUBCHEM_COMPOUND_CID>
261491

> <PUBCHEM_CONFORMER_DIVERSEORDER>
1
2
3

> <PUBCHEM_CONFORMER_ID>
0003FD7300000001

> <PUBCHEM_CONFORMER_RMSD>
0.4

> <PUBCHEM_COORDINATE_TYPE>
2
5
10

> <PUBCHEM_EFFECTIVE_ROTOR_COUNT>
1.6

> <PUBCHEM_FEATURE_SELFOVERLAP>
15.223

> <PUBCHEM_HEAVY_ATOM_COUNT>
11

> <PUBCHEM_ISOTOPIC_ATOM_COUNT>
0

> <PUBCHEM_MMFF94_ENERGY>
22.3343

> <PUBCHEM_MMFF94_PARTIAL_CHARGES>
11
1 -0.57
12 0.1
13 0.1
14 0.1
2 -0.19
3 -0.19
4 -0.2
5 0.16
6 0.16
7 0.09
8 0.45

> <PUBCHEM_PHARMACOPHORE_FEATURES>
3
1 1 acceptor
3 7 10 11 hydrophobe
6 2 3 4 5 6 8 rings

> <PUBCHEM_SHAPE_FINGERPRINT>
10857977 72 18339363066796519931
12423570 1 11936704049843132511
13024252 1 15792276133943883278
13839132 238 18269000786465658149
14128692 85 16372141120197057899
15076042 46 18261944146703172266
15219456 202 18129114350290986014
15557651 10 17417820577235952070
16945 1 18268706276252531022
20645464 45 16987983020891209210
20653085 51 13470417724359706882
21040471 1 18130495358338498092
21922407 69 17458336434021317112
23235685 24 18271241616885558845
23236772 104 17822016457590933480
25610 171 18412257333306555737
2748010 2 18269849631038333783
29004967 10 14345794924747042588
369184 2 17240749679816965668
5084963 1 17703506709145370470
81228 2 16983755518662491862

> <PUBCHEM_SHAPE_MULTIPOLES>
220.51
3.57
1.44
1.33
0.86
0.33
0.26
0.53
0.94
-0.77
-0.14
0.38
-0.42
0.19

> <PUBCHEM_SHAPE_SELFOVERLAP>
454.569

> <PUBCHEM_SHAPE_VOLUME>
131.1

> <RelativeEnergy>
4.72024

> <StereoisomerIndex>
1

> <TautomerIndex>
1

> <POSE_NUMBER>
1

> <LibDockScore>
63.1039

> <HotSpots>
7.61,1.27,1.95,A,80,6
7.61,2.87,-1.05,A,58,9
7.81,4.27,4.14,A,90,10

> <-In-Situ Starting Energy>
-309.622781

> <-In-Situ Final Energy>
1.37909986

> <In-Situ Gradient>
0.0007734876788

$$$$
2723704
  SciTegic09142310043D

 11 10  0  0  0  0            999 V2000
    8.3648    6.8751   -5.0789 S   0  0  0  1  0  0
    8.1179    9.4384   -4.1489 N   0  0  0  1  0  0
    9.6500    9.1415   -5.8069 N   0  0  0  1  0  0
    7.0172    8.9919   -3.3112 C   0  0  0  1  0  0
    8.7370    8.5897   -4.9936 C   0  0  0  1  0  0
    7.3923    6.6918   -5.9757 H   0  0
   10.2000    8.5551   -6.4081 H   0  0
    9.7691   10.1348   -5.7778 H   0  0
    7.3197    8.1015   -2.7585 H   0  0
    6.1661    8.7810   -3.9583 H   0  0
    6.7718    9.7984   -2.6208 H   0  0
  1  5  1  0
  2  4  1  0
  2  5  2  0
  3  5  1  0
  1  6  1  0
  3  7  1  0
  3  8  1  0
  4  9  1  0
  4 10  1  0
  4 11  1  0
M  END
> <Name>
2723704

> <Binding Energy>
-14.2587

> <Ligand Energy>
-7.9932

> <Protein Energy>
-7801.1566

> <Complex Energy>
-7823.4085

> <Complex Entropy>
-31.4744

> <Protein Entropy>
-31.4717

> <Ligand Entropy>
-15.9107

> <Entropic Energy>
15.908

> <AbsoluteEnergy>
3.11873

> <ConfNumber>
1

> <IonizationIndex>
1

> <MOL_NUMBER>
162

> <NumberOfIonizations>
1

> <NumberOfStereoisomers>
1

> <NumberOfTautomers>
3

> <PUBCHEM_ATOM_DEF_STEREO_COUNT>
0

> <PUBCHEM_ATOM_UDEF_STEREO_COUNT>
0

> <PUBCHEM_BOND_DEF_STEREO_COUNT>
0

> <PUBCHEM_BOND_UDEF_STEREO_COUNT>
0

> <PUBCHEM_CACTVS_TAUTO_COUNT>
3

> <PUBCHEM_COMPONENT_COUNT>
1

> <PUBCHEM_COMPOUND_CID>
2723704

> <PUBCHEM_CONFORMER_DIVERSEORDER>
1
2
3
4

> <PUBCHEM_CONFORMER_ID>
00298F7800000001

> <PUBCHEM_CONFORMER_RMSD>
0.4

> <PUBCHEM_COORDINATE_TYPE>
2
5
10

> <PUBCHEM_EFFECTIVE_ROTOR_COUNT>
1

> <PUBCHEM_FEATURE_SELFOVERLAP>
15.264

> <PUBCHEM_HEAVY_ATOM_COUNT>
5

> <PUBCHEM_ISOTOPIC_ATOM_COUNT>
0

> <PUBCHEM_MMFF94_ENERGY>
2.9418

> <PUBCHEM_MMFF94_PARTIAL_CHARGES>
8
1 -0.38
10 0.37
11 0.37
2 -0.73
3 -0.8
4 0.3
5 0.5
6 0.37

> <PUBCHEM_PHARMACOPHORE_FEATURES>
3
1 1 acceptor
1 2 donor
1 3 donor

> <PUBCHEM_SHAPE_FINGERPRINT>
139733 1 9220931666612937347
16714656 1 18336833107726209732
20096714 4 18410855490451629584
21015797 1 8790013264167249552
21040471 1 18410856607095517344
5460574 1 9295296035940457281
5943 1 13100175725090492242

> <PUBCHEM_SHAPE_MULTIPOLES>
96.79
2.6
1.11
0.6
0.27
0.41
0
-0.73
0
-0.13
0
-0.05
-0.02
0

> <PUBCHEM_SHAPE_SELFOVERLAP>
160.028

> <PUBCHEM_SHAPE_VOLUME>
68

> <RelativeEnergy>
0

> <StereoisomerIndex>
1

> <TautomerIndex>
2

> <POSE_NUMBER>
1

> <LibDockScore>
39.6613

> <HotSpots>
8.41,8.07,-4.86,A,38,1
9.81,9.87,-3.46,P,67,2
10.01,10.27,-5.66,P,55,3

> <-In-Situ Starting Energy>
-2.96715779

> <-In-Situ Final Energy>
16.6270252

> <In-Situ Gradient>
0.0005312910386

$$$$
27686
  SciTegic09142310043D

 48 51  0  0  0  0            999 V2000
   16.4234    2.5337  -12.4589 O   0  0  0  1  0  0
   15.6419    1.5014   -9.6803 O   0  0  0  1  0  0
   16.5996    0.0419  -12.0573 O   0  0  0  1  0  0
   12.0166    4.4523  -12.2343 O   0  0  0  1  0  0
   11.6849   -0.1127   -6.1436 O   0  0  0  1  0  0
   14.1578    1.1434  -12.7252 O   0  0  0  1  0  0
   11.4518   -1.2495   -9.9770 O   0  0  0  1  0  0
    9.5123    4.6070  -13.2181 O   0  5  0  1  0  0
    8.5743   -1.8325   -6.0567 O   0  5  0  1  0  0
    9.5492    2.6188  -14.0466 O   0  0  0  1  0  0
    9.1325   -0.2413   -4.7656 O   0  0  0  1  0  0
   17.3872    0.7738  -11.1432 C   0  0  1  1  0  0
   17.5296    2.2281  -11.6206 C   0  0  0  1  0  0
   16.7855    0.6751   -9.7351 C   0  0  0  1  0  0
   15.5761    3.5542  -12.0292 C   0  0  0  1  0  0
   14.1972    3.4251  -12.1967 C   0  0  0  1  0  0
   14.7215    1.0478   -8.7605 C   0  0  0  1  0  0
   13.3582    4.4953  -11.8975 C   0  0  0  1  0  0
   12.6627   -0.1007   -8.3555 C   0  0  0  1  0  0
   13.6524    0.3110   -9.2327 C   0  0  0  1  0  0
   12.7268    0.2267   -7.0035 C   0  0  0  1  0  0
   16.0809    4.7557  -11.5375 C   0  0  0  1  0  0
   13.5853    2.1935  -12.7056 C   0  0  0  1  0  0
   14.8198    1.3533   -7.4074 C   0  0  0  1  0  0
   13.8692    5.6458  -11.3136 C   0  0  0  1  0  0
   13.8212    0.9403   -6.5286 C   0  0  0  1  0  0
   15.2358    5.7755  -11.1314 C   0  0  0  1  0  0
   11.5162   -0.8427   -8.8519 C   0  0  0  1  0  0
   12.1854    2.2821  -13.1628 C   0  0  0  1  0  0
   11.4796    3.4069  -12.9254 C   0  0  0  1  0  0
   10.4218   -1.0548   -7.9052 C   0  0  0  1  0  0
   10.5460   -0.7058   -6.6103 C   0  0  0  1  0  0
   10.0875    3.5404  -13.4274 C   0  0  0  1  0  0
    9.3740   -0.9597   -5.7254 C   0  0  0  1  0  0
   15.7911    0.5404  -12.2151 H   0  0
   18.3705    0.3022  -11.1250 H   0  0
   17.6103    2.8784  -10.7526 H   0  0
   18.4448    2.3491  -12.2002 H   0  0
   16.5404   -0.3679   -9.5211 H   0  0
   17.5019    1.0042   -8.9817 H   0  0
   13.5888    0.0809  -10.2879 H   0  0
   17.1415    4.9134  -11.4849 H   0  0
   15.6618    1.9267   -7.0484 H   0  0
   13.2089    6.4484  -11.0236 H   0  0
   13.8752    1.1882   -5.4797 H   0  0
   15.6503    6.6794  -10.7099 H   0  0
   11.7526    1.4441  -13.6768 H   0  0
    9.5103   -1.4825   -8.2700 H   0  0
  1 13  1  0
  1 15  1  0
  2 14  1  0
  2 17  1  0
  3 12  1  0
  4 18  1  0
  4 30  1  0
  5 21  1  0
  5 32  1  0
  6 23  2  0
  7 28  2  0
  8 33  1  0
  9 34  1  0
 10 33  2  0
 11 34  2  0
 12 13  1  0
 12 14  1  0
 15 16  2  0
 15 22  1  0
 16 18  1  0
 16 23  1  0
 17 20  2  0
 17 24  1  0
 18 25  2  0
 19 20  1  0
 19 21  2  0
 19 28  1  0
 21 26  1  0
 22 27  2  0
 23 29  1  0
 24 26  2  0
 25 27  1  0
 28 31  1  0
 29 30  2  0
 30 33  1  0
 31 32  2  0
 32 34  1  0
  3 35  1  0
 12 36  1  0
 13 37  1  0
 13 38  1  0
 14 39  1  0
 14 40  1  0
 20 41  1  0
 22 42  1  0
 24 43  1  0
 25 44  1  0
 26 45  1  0
 27 46  1  0
 29 47  1  0
 31 48  1  0
M  CHG  2   8  -1   9  -1
M  END
> <Name>
27686

> <Binding Energy>
-81.8164

> <Ligand Energy>
8.6168

> <Protein Energy>
-7801.1566

> <Complex Energy>
-7874.3562

> <Complex Entropy>
-31.488

> <Protein Entropy>
-31.4717

> <Ligand Entropy>
-20.5681

> <Entropic Energy>
20.5518

> <AbsoluteEnergy>
57.4644

> <ConfNumber>
53

> <Ionization pH>
7.5

> <IonizationIndex>
1

> <MOL_NUMBER>
167

> <NumberOfIonizations>
1

> <NumberOfStereoisomers>
1

> <NumberOfTautomers>
1

> <PUBCHEM_ATOM_DEF_STEREO_COUNT>
0

> <PUBCHEM_ATOM_UDEF_STEREO_COUNT>
1

> <PUBCHEM_BOND_DEF_STEREO_COUNT>
0

> <PUBCHEM_BOND_UDEF_STEREO_COUNT>
0

> <PUBCHEM_CACTVS_TAUTO_COUNT>
1

> <PUBCHEM_COMPONENT_COUNT>
1

> <PUBCHEM_COMPOUND_CID>
27686

> <PUBCHEM_CONFORMER_DIVERSEORDER>
1
5
12
131
19
56
98
39
78
145
8
106
14
159
155
151
11
146
50
65
59
90
136
71
22
95
79
3
48
141
81
157
103
91
104
156
144
10
23
94
160
118
27
84
75
92
4
137
107
120
109
74
28
85
152
29
112
158
100
123
17
116
122
83
138
66
89
80
52
44
82
114
135
99
26
140
76
126
87
38
143
102
113
97
49
115
121
133
88
119
105
36
124
35
129
43
73
69
130
45
96
134
111
125
70
32
37
15
30
57
61
20
18
46
21
51
154
31
54
147
7
117
149
72
58
40
64
2
34
68
142
42
16
67
63
13
33
47
41
86
77
24
6
25
60
62
127
128
132
150
101
9
139
108
153
93
53
110
55
148

> <PUBCHEM_CONFORMER_ID>
00006C2600000001

> <PUBCHEM_CONFORMER_RMSD>
1

> <PUBCHEM_COORDINATE_TYPE>
2
5
10

> <PUBCHEM_EFFECTIVE_ROTOR_COUNT>
8

> <PUBCHEM_FEATURE_SELFOVERLAP>
91.572

> <PUBCHEM_HEAVY_ATOM_COUNT>
34

> <PUBCHEM_ISOTOPIC_ATOM_COUNT>
0

> <PUBCHEM_MMFF94_ENERGY>
108.433

> <PUBCHEM_MMFF94_PARTIAL_CHARGES>
45
1 -0.36
10 -0.57
11 -0.57
12 0.28
13 0.28
14 0.28
15 0.08
16 0.09
17 0.08
18 0.08
19 0.09
2 -0.36
20 -0.15
21 0.08
22 -0.15
23 0.47
24 -0.15
25 -0.15
26 -0.15
27 -0.15
28 0.47
29 -0.14
3 -0.68
30 0.09
31 -0.14
32 0.09
33 0.71
34 0.71
4 -0.16
40 0.15
41 0.15
42 0.15
43 0.15
44 0.15
45 0.15
46 0.4
47 0.15
48 0.15
49 0.5
5 -0.16
50 0.5
6 -0.57
7 -0.57
8 -0.65
9 -0.65

> <PUBCHEM_PHARMACOPHORE_FEATURES>
18
1 1 acceptor
1 10 acceptor
1 11 acceptor
1 2 acceptor
1 3 acceptor
1 3 donor
1 4 acceptor
1 5 acceptor
1 6 acceptor
1 7 acceptor
1 8 acceptor
1 9 acceptor
3 8 10 33 anion
3 9 11 34 anion
6 15 16 18 22 25 27 rings
6 17 19 20 21 24 26 rings
6 4 16 18 23 29 30 rings
6 5 19 21 28 31 32 rings

> <PUBCHEM_SHAPE_FINGERPRINT>
10032420 55 17604408799828140913
10165383 225 17408274389930246799
10256941 240 17759209952990393128
11513181 2 17127599127302560894
11595378 159 18334287652519923538
12156800 1 14688354627254196151
128993 33 17484520036516544947
13761468 95 18266178340565394454
14840074 17 18336278859366227697
15021287 119 17895470303486563466
151778 21 17334509198140871881
15975801 100 18189629250519142044
17627616 140 17760937641717396220
21796203 349 17829090711183307240
21927370 108 18263086676713556426
25019877 29 16916230008227369263
3493558 16 17836366317416149472
392239 28 18334577953991628044
469060 322 18408323310799000771
50677037 204 18339366391755899896
5252454 2 18057889034852380826
6287921 2 18129400244614860208
6608658 132 18334305275223841604
9981440 41 17615383888800201641

> <PUBCHEM_SHAPE_MULTIPOLES>
635.14
9.28
6.22
2.36
14.41
5.14
0.92
-2.5
2.55
-4.96
-3.03
-0.51
0.7
-1.31

> <PUBCHEM_SHAPE_SELFOVERLAP>
1405.772

> <PUBCHEM_SHAPE_VOLUME>
336.3

> <RelativeEnergy>
12.0279

> <StereoisomerIndex>
1

> <TautomerIndex>
1

> <POSE_NUMBER>
3

> <LibDockScore>
105.1052

> <HotSpots>
8.61,-2.33,-5.66,P,54,7
9.01,2.67,-14.05,A,21,33
7.21,1.27,-2.85,A,46,34

> <-In-Situ Starting Energy>
-352.241493

> <-In-Situ Final Energy>
45.7143761

> <In-Situ Gradient>
0.0008532359841

$$$$
28718
  SciTegic09142310043D

 28 29  0  0  0  0            999 V2000
    5.7850    4.1698    2.9108 Cl  0  0  0  1  0  0
    6.2224   -2.4533   -0.3572 O   0  5  0  1  0  0
    7.1755   -1.6609    1.3618 O   0  0  0  1  0  0
    8.4207    0.6120    1.0445 N   0  0  0  1  0  0
    7.9629    1.9074   -0.8029 N   0  0  0  1  0  0
    8.2911    1.5892    1.9475 C   0  0  0  1  0  0
    7.0446    2.0414    2.3328 C   0  0  0  1  0  0
    7.7729    0.7620   -0.1261 C   0  0  0  1  0  0
    9.4167    2.1958    2.4628 C   0  0  0  1  0  0
    7.0603    3.2195    3.0391 C   0  0  0  1  0  0
    6.8633   -0.2227   -0.4953 C   0  0  0  1  0  0
    5.7463    1.3340    1.9992 C   0  0  0  1  0  0
    9.3395    3.3182    3.2191 C   0  0  0  1  0  0
    8.1480    3.8661    3.5330 C   0  0  0  1  0  0
    5.9850    0.1041   -1.5199 C   0  0  0  1  0  0
    6.1556    1.2837   -2.2213 C   0  0  0  1  0  0
    7.1636    2.1506   -1.8380 C   0  0  0  1  0  0
    6.7537   -1.5182    0.2158 C   0  0  0  1  0  0
    8.5985   -0.3257    1.3501 H   0  0
   10.3780    1.7606    2.4233 H   0  0
    5.8722    0.2567    2.0355 H   0  0
    5.3769    1.6363    1.0203 H   0  0
    4.9762    1.5498    2.7375 H   0  0
   10.2079    3.8363    3.4545 H   0  0
    8.1019    4.8268    4.0273 H   0  0
    5.1633   -0.5442   -1.7587 H   0  0
    5.5148    1.5222   -3.0514 H   0  0
    7.2903    3.0754   -2.3810 H   0  0
  1 10  1  0
  2 18  1  0
  3 18  2  0
  4  6  1  0
  4  8  1  0
  5  8  2  0
  5 17  1  0
  6  7  2  0
  6  9  1  0
  7 10  1  0
  7 12  1  0
  8 11  1  0
  9 13  2  0
 10 14  2  0
 11 15  2  0
 11 18  1  0
 13 14  1  0
 15 16  1  0
 16 17  2  0
  4 19  1  0
  9 20  1  0
 12 21  1  0
 12 22  1  0
 12 23  1  0
 13 24  1  0
 14 25  1  0
 15 26  1  0
 16 27  1  0
 17 28  1  0
M  CHG  1   2  -1
M  END
> <Name>
28718

> <Binding Energy>
-7.7542

> <Ligand Energy>
43.3

> <Protein Energy>
-7801.1566

> <Complex Energy>
-7765.6108

> <Complex Entropy>
-31.4786

> <Protein Entropy>
-31.4717

> <Ligand Entropy>
-18.848

> <Entropic Energy>
18.841

> <AbsoluteEnergy>
53.0787

> <ConfNumber>
3

> <Ionization pH>
7.5

> <IonizationIndex>
1

> <MOL_NUMBER>
169

> <NumberOfIonizations>
1

> <NumberOfStereoisomers>
1

> <NumberOfTautomers>
2

> <PUBCHEM_ATOM_DEF_STEREO_COUNT>
0

> <PUBCHEM_ATOM_UDEF_STEREO_COUNT>
0

> <PUBCHEM_BOND_DEF_STEREO_COUNT>
0

> <PUBCHEM_BOND_UDEF_STEREO_COUNT>
0

> <PUBCHEM_CACTVS_TAUTO_COUNT>
3

> <PUBCHEM_COMPONENT_COUNT>
1

> <PUBCHEM_COMPOUND_CID>
28718

> <PUBCHEM_CONFORMER_DIVERSEORDER>
1
7
16
12
15
10
2
8
4
14
9
13
11
3
5
6

> <PUBCHEM_CONFORMER_ID>
7020

> <PUBCHEM_CONFORMER_RMSD>
0.6

> <PUBCHEM_COORDINATE_TYPE>
2
5
10

> <PUBCHEM_EFFECTIVE_ROTOR_COUNT>
3

> <PUBCHEM_FEATURE_SELFOVERLAP>
40.652

> <PUBCHEM_HEAVY_ATOM_COUNT>
18

> <PUBCHEM_ISOTOPIC_ATOM_COUNT>
0

> <PUBCHEM_MMFF94_ENERGY>
69.9026

> <PUBCHEM_MMFF94_PARTIAL_CHARGES>
26
1 -0.18
10 0.18
11 0.09
12 0.14
13 -0.15
14 -0.15
15 -0.15
16 -0.15
17 0.16
18 0.63
19 0.4
2 -0.65
20 0.15
24 0.15
25 0.15
26 0.15
27 0.15
28 0.15
29 0.5
3 -0.57
4 -0.6
5 -0.62
6 0.1
7 -0.14
8 0.41
9 -0.15

> <PUBCHEM_PHARMACOPHORE_FEATURES>
8
1 2 acceptor
1 3 acceptor
1 4 cation
1 4 donor
1 5 acceptor
3 2 3 18 anion
6 5 8 11 15 16 17 rings
6 6 7 9 10 13 14 rings

> <PUBCHEM_SHAPE_FINGERPRINT>
10062212 137 18201997699579340447
10616163 171 18200315536408806479
10980938 120 18334579031775114268
11471102 20 18259983790617244780
11578080 2 18054474029157261105
12107183 9 17908146473467160801
12236239 1 18343301478634258804
12553582 1 18045777880398356434
12670546 56 18273492377396162773
12788726 201 17918281965431754881
13009979 54 18058453097434355834
13167823 11 18412826872082641583
13533116 47 18410854369834534531
13538477 17 18201995568658474303
13583140 156 17824838745706198345
14144814 61 18412829057893830745
14251717 144 18333166176439321370
15279307 12 18340488957976479310
15375358 24 16515681169402480477
15375462 189 18272093841882092777
15442244 35 18267307534395777960
15536298 74 18341896268851988106
15669948 3 17917990615908557719
16752209 62 17846775205112721607
17492 89 18341898463512497279
1813 80 18120944906362629990
18186145 218 18187365411226076555
19422 9 18341895169155899971
200 152 18412259575601139861
20279233 1 16515402980017638217
20559304 39 18343300370759601736
20645477 70 18187075152851530039
20715895 44 17909266889255426945
21267235 1 18341341049375755351
22445834 79 18410857650561554248
2255824 54 18334863805418538070
22854114 111 18335707151874158784
23048698 100 18408603656304371851
23402539 116 17775282790237762605
23463225 33 18341334400908578477
23557571 272 16702029694191434961
23559900 14 17345768377608513140
23598291 2 18339929207725934789
312423 11 18342187647854582167
33824 294 18187643639334027650
4340502 62 17894633699475261859
474 4 18188775088307416436
5104073 3 18342741797514921467
57096353 35 18342459300230648213
603831 33 18272364334469145981
633830 44 18265627635553489964
6992083 37 18053390902665487376
7097593 13 18268990873618023770
7364860 26 18411420601063478286
7615 1 18343300340700196369
77492 1 18343303660588408425
8272917 22 18334580130906745719
84936 182 18198907092363415016
90525 40 18130792243784668895
9709674 26 18408047316242822467
9981440 41 17404010917766975456

> <PUBCHEM_SHAPE_MULTIPOLES>
350.6
8.56
2.39
1.06
3.48
0.42
0.04
0.38
-0.82
-1.72
0.14
0.43
0.02
-2.02

> <PUBCHEM_SHAPE_SELFOVERLAP>
746.571

> <PUBCHEM_SHAPE_VOLUME>
195.1

> <RelativeEnergy>
1.52902

> <StereoisomerIndex>
1

> <TautomerIndex>
1

> <POSE_NUMBER>
1

> <LibDockScore>
57.2778

> <HotSpots>
8.81,3.67,3.75,A,88,13
7.21,1.27,-2.85,A,46,16
6.61,-0.93,-0.06,A,65,18

> <-In-Situ Starting Energy>
-1071.51905

> <-In-Situ Final Energy>
-45.3155148

> <In-Situ Gradient>
0.0007569628955

$$$$
29029
  SciTegic09142310043D

 61 62  0  0  0  0            999 V2000
   10.8912    6.6355   -6.6189 Cl  0  0  0  1  0  0
   12.0889    0.9694   -7.7700 S   0  0  0  1  0  0
   13.5008    3.1759   -8.1004 O   0  0  0  1  0  0
   13.4215    5.0784   -5.4775 O   0  0  0  1  0  0
   13.4608    3.0857   -4.0411 O   0  0  0  1  0  0
   14.3969    0.7086   -5.6129 O   0  0  0  1  0  0
   14.0744    5.2781  -10.8413 O   0  0  0  1  0  0
   12.7802    3.9019  -12.9874 N   0  3  2  1  0  0
   12.1778    5.1513   -9.5570 N   0  0  0  1  0  0
   10.7325    2.6170  -12.6073 C   0  0  2  1  0  0
   12.0702    4.3299  -11.7680 C   0  0  1  1  0  0
   11.3182    3.0973  -11.2942 C   0  0  0  1  0  0
   11.7213    3.1330  -13.6755 C   0  0  0  1  0  0
   12.5261    4.0269   -7.5218 C   0  0  2  1  0  0
   12.7824    5.3611   -8.2559 C   0  0  2  1  0  0
   12.5874    4.0602   -5.9821 C   0  0  1  1  0  0
    9.3227    3.2010  -12.7805 C   0  0  0  1  0  0
   13.0457    2.7468   -5.3440 C   0  0  1  1  0  0
   12.9017    4.9821  -10.6753 C   0  0  0  1  0  0
   14.1119    1.9837   -6.1499 C   0  0  2  1  0  0
   13.6523    1.8657   -7.6041 C   0  0  1  1  0  0
   12.3317    6.7129   -7.6563 C   0  0  1  1  0  0
   13.9946    3.0844  -12.7975 C   0  0  0  1  0  0
    8.5530    2.5176  -13.8974 C   0  0  0  1  0  0
   12.0451    7.7511   -8.7483 C   0  0  0  1  0  0
    7.0666    2.8433  -13.8306 C   0  0  0  1  0  0
   12.6856   -0.5870   -8.4617 C   0  0  0  1  0  0
   14.2796    4.9278   -5.8274 H   0  0
   13.9117    3.9289   -4.0577 H   0  0
   13.6228    0.1601   -5.6563 H   0  0
   13.0413    4.7181  -13.5274 H   0  0
   11.1886    5.0098   -9.5700 H   0  0
   10.6860    1.5265  -12.6043 H   0  0
   11.3234    5.0650  -12.0616 H   0  0
   10.5579    3.3077  -10.5397 H   0  0
   11.9961    2.3559  -10.8681 H   0  0
   12.1565    2.3250  -14.2662 H   0  0
   11.2255    3.8102  -14.3732 H   0  0
   11.5376    3.6463   -7.7864 H   0  0
   13.8605    5.4548   -8.4124 H   0  0
   11.5932    4.2577   -5.5821 H   0  0
    8.7697    3.0514  -11.8536 H   0  0
    9.3457    4.2793  -12.9441 H   0  0
   12.1650    2.1114   -5.2459 H   0  0
   15.0527    2.5349   -6.1327 H   0  0
   14.4200    1.3734   -8.2016 H   0  0
   13.1385    7.0806   -7.0226 H   0  0
   13.7853    2.2293  -12.1549 H   0  0
   14.7923    3.6838  -12.3615 H   0  0
   14.3415    2.7239  -13.7668 H   0  0
    8.9703    2.7498  -14.8756 H   0  0
    8.6774    1.4558  -13.7596 H   0  0
   12.0053    8.7692   -8.3681 H   0  0
   11.0960    7.5554   -9.2495 H   0  0
   12.8314    7.7252   -9.4974 H   0  0
    6.8726    3.8902  -14.0649 H   0  0
    6.6854    2.6579  -12.8298 H   0  0
    6.4954    2.2149  -14.5133 H   0  0
   13.7189   -0.7803   -8.1732 H   0  0
   12.6073   -0.5791   -9.5484 H   0  0
   12.0879   -1.4129   -8.0748 H   0  0
  1 22  1  0
  2 21  1  0
  2 27  1  0
  3 14  1  0
  3 21  1  0
  4 16  1  0
  5 18  1  0
  6 20  1  0
  7 19  2  0
  8 11  1  0
  8 13  1  0
  8 23  1  0
  9 15  1  0
  9 19  1  0
 10 12  1  0
 10 13  1  0
 10 17  1  0
 11 12  1  0
 11 19  1  0
 14 15  1  0
 14 16  1  0
 15 22  1  0
 16 18  1  0
 17 24  1  0
 18 20  1  0
 20 21  1  0
 22 25  1  0
 24 26  1  0
  4 28  1  0
  5 29  1  0
  6 30  1  0
  8 31  1  0
  9 32  1  0
 10 33  1  0
 11 34  1  0
 12 35  1  0
 12 36  1  0
 13 37  1  0
 13 38  1  0
 14 39  1  0
 15 40  1  0
 16 41  1  0
 17 42  1  0
 17 43  1  0
 18 44  1  0
 20 45  1  0
 21 46  1  0
 22 47  1  0
 23 48  1  0
 23 49  1  0
 23 50  1  0
 24 51  1  0
 24 52  1  0
 25 53  1  0
 25 54  1  0
 25 55  1  0
 26 56  1  0
 26 57  1  0
 26 58  1  0
 27 59  1  0
 27 60  1  0
 27 61  1  0
M  CHG  1   8   1
M  END
> <Name>
29029

> <Binding Energy>
-59.4245

> <Ligand Energy>
55.9404

> <Protein Energy>
-7801.1566

> <Complex Energy>
-7804.6407

> <Complex Entropy>
-31.486

> <Protein Entropy>
-31.4717

> <Ligand Entropy>
-20.2552

> <Entropic Energy>
20.2409

> <AbsoluteEnergy>
30.0366

> <ConfNumber>
5

> <Ionization pH>
7.66_P

> <IonizationIndex>
1

> <MOL_NUMBER>
174

> <NumberOfIonizations>
2

> <NumberOfStereoisomers>
2

> <NumberOfTautomers>
1

> <PUBCHEM_ATOM_DEF_STEREO_COUNT>
7

> <PUBCHEM_ATOM_UDEF_STEREO_COUNT>
2

> <PUBCHEM_BOND_DEF_STEREO_COUNT>
0

> <PUBCHEM_BOND_UDEF_STEREO_COUNT>
0

> <PUBCHEM_CACTVS_TAUTO_COUNT>
2

> <PUBCHEM_COMPONENT_COUNT>
1

> <PUBCHEM_COMPOUND_CID>
29029

> <PUBCHEM_CONFORMER_DIVERSEORDER>
1
153
209
155
272
160
64
307
218
11
84
157
193
174
93
219
131
150
246
213
252
186
269
210
300
306
33
242
27
83
208
151
175
121
177
190
49
201
256
243
311
185
191
231
253
42
91
250
46
247
154
244
303
308
222
22
288
104
234
117
30
239
229
291
183
223
225
75
14
132
21
312
238
221
211
284
135
111
71
278
90
145
7
45
99
171
189
133
101
226
194
266
217
277
261
52
309
127
125
116
138
254
192
282
179
51
264
136
67
295
18
166
89
86
146
314
39
302
54
227
188
80
173
88
48
65
200
310
260
245
70
230
134
59
81
299
297
82
220
108
258
144
286
143
271
305
140
20
273
115
205
98
180
172
237
34
25
26
207
187
203
283
292
162
228
106
68
280
170
197
102
240
92
79
159
176
35
199
276
290
107
5
56
47
156
85
279
122
287
139
24
78
263
109
195
13
275
265
113
105
142
32
181
72
149
120
6
15
28
167
110
112
96
95
123
76
53
215
204
40
206
289
41
141
38
251
198
249
31
274
124
23
214
29
44
19
233
3
281
69
129
178
294
255
147
36
224
100
77
66
9
236
267
182
10
63
119
262
169
62
259
202
55
73
232
130
97
216
37
293
248
270
241
304
114
165
61
43
152
313
184
8
16
158
50
298
4
161
94
12
74
196
148
212
296
118
87
163
2
17
103
137
126
168
128
60
301
235
57
268
164
285
257
58

> <PUBCHEM_CONFORMER_ID>
716500000001

> <PUBCHEM_CONFORMER_RMSD>
1

> <PUBCHEM_COORDINATE_TYPE>
2
5
10

> <PUBCHEM_EFFECTIVE_ROTOR_COUNT>
10.2

> <PUBCHEM_FEATURE_SELFOVERLAP>
71.062

> <PUBCHEM_HEAVY_ATOM_COUNT>
27

> <PUBCHEM_ISOTOPIC_ATOM_COUNT>
0

> <PUBCHEM_MMFF94_ENERGY>
60.5203

> <PUBCHEM_MMFF94_PARTIAL_CHARGES>
25
1 -0.29
11 0.33
13 0.27
14 0.28
15 0.3
16 0.28
18 0.28
19 0.57
2 -0.46
20 0.28
21 0.51
22 0.29
23 0.27
27 0.23
3 -0.56
4 -0.68
41 0.37
5 -0.68
52 0.4
53 0.4
57 0.4
6 -0.68
7 -0.57
8 -0.81
9 -0.73

> <PUBCHEM_PHARMACOPHORE_FEATURES>
14
1 26 hydrophobe
1 27 hydrophobe
1 3 acceptor
1 4 acceptor
1 4 donor
1 5 acceptor
1 5 donor
1 6 acceptor
1 6 donor
1 7 acceptor
1 8 cation
1 9 donor
5 8 10 11 12 13 rings
6 3 14 16 18 20 21 rings

> <PUBCHEM_SHAPE_FINGERPRINT>
10498660 4 18269280221828768664
10675989 125 18050280376040173353
11112241 14 16412366800687217136
11405975 8 18187081767745049634
12403260 363 18198055885326273470
12788726 201 17703800184234872257
13583140 156 17822867372496049858
13590594 115 16392689437995445811
14251764 38 18342179916950704004
14363568 33 17185887631551938497
14466204 15 17832417606057398314
14787075 74 18341608201353692293
14790565 3 18268998583759839289
14955137 171 16035513073328715659
15420108 30 16111210050495197834
20510252 161 18410299099082334467
21033648 29 17313373496489064301
21049683 118 17603576388317396489
21521721 280 18410578379905302145
21623110 236 18342183249840272041
22956985 138 15518712543075753626
23227448 37 18337390551420768524
23557571 272 18265348355009869358
23558518 356 17769390326550457873
23559900 14 18411135801962104234
3380486 145 17976554024104110811
469060 322 17757857875499078984
474 4 18121783816100631259
50150288 127 16628033652791099632
5104073 3 18041555957779393346
633830 44 18265886969699547951
9709674 26 18411986845178090806
9981440 41 18410287008427844546

> <PUBCHEM_SHAPE_MULTIPOLES>
522.06
10.74
5.2
1.35
7.07
0.12
0.54
7.08
-2.35
1.44
1.34
-1.15
-0.16
1.44

> <PUBCHEM_SHAPE_SELFOVERLAP>
1027.012

> <PUBCHEM_SHAPE_VOLUME>
316.8

> <RelativeEnergy>
2.10392

> <StereoisomerIndex>
2

> <TautomerIndex>
1

> <POSE_NUMBER>
1

> <LibDockScore>
113.7026

> <HotSpots>
7.61,3.27,-13.26,A,25,17
7.21,2.27,-14.26,A,20,24
10.81,8.27,-8.46,A,35,25

> <-In-Situ Starting Energy>
-1649.35947

> <-In-Situ Final Energy>
-27.8612989

> <In-Situ Gradient>
0.003178995231

$$$$
3002043
  SciTegic09142310043D

 20 20  0  0  0  0            999 V2000
    5.9464    7.1839   -1.6953 S   0  0  0  1  0  0
    6.6530   11.9127   -2.8876 O   0  0  0  1  0  0
    6.5033    9.7218   -2.2736 N   0  5  0  1  0  0
    6.1704    9.1987   -0.0444 N   0  0  0  1  0  0
    6.5986   13.0858   -0.4034 C   0  0  0  1  0  0
    6.5262   11.5661   -0.6282 C   0  0  0  1  0  0
    6.3390   13.6219    1.0148 C   0  0  0  1  0  0
    6.5817   11.0501   -2.0216 C   0  0  0  1  0  0
    6.3648   10.6087    0.3107 C   0  0  0  1  0  0
    7.4189   14.3045    1.8278 C   0  0  0  1  0  0
    6.2371    8.7923   -1.3239 C   0  0  0  1  0  0
    5.9745    8.5245    0.6698 H   0  0
    5.9250   13.6297   -1.0429 H   0  0
    7.4918   13.4770   -0.8387 H   0  0
    5.4127   14.1952    1.0660 H   0  0
    6.2454   12.7304    1.5933 H   0  0
    6.3680   10.8195    1.3578 H   0  0
    7.6472   15.3211    1.5258 H   0  0
    8.2710   13.6322    1.7481 H   0  0
    7.2251   14.4315    2.8874 H   0  0
  1 11  2  0
  2  8  2  0
  3  8  1  0
  3 11  1  0
  4  9  1  0
  4 11  1  0
  5  6  1  0
  5  7  1  0
  6  8  1  0
  6  9  2  0
  7 10  1  0
  4 12  1  0
  5 13  1  0
  5 14  1  0
  7 15  1  0
  7 16  1  0
  9 17  1  0
 10 18  1  0
 10 19  1  0
 10 20  1  0
M  CHG  1   3  -1
M  END
> <Name>
3002043

> <Binding Energy>
-14.9266

> <Ligand Energy>
32.1549

> <Protein Energy>
-7801.1566

> <Complex Energy>
-7783.9283

> <Complex Entropy>
-31.4768

> <Protein Entropy>
-31.4717

> <Ligand Entropy>
-17.8247

> <Entropic Energy>
17.8195

> <AbsoluteEnergy>
16.8493

> <ConfNumber>
7

> <Ionization pH>
7.5

> <IonizationIndex>
1

> <MOL_NUMBER>
176

> <NumberOfIonizations>
1

> <NumberOfStereoisomers>
1

> <NumberOfTautomers>
3

> <PUBCHEM_ATOM_DEF_STEREO_COUNT>
0

> <PUBCHEM_ATOM_UDEF_STEREO_COUNT>
0

> <PUBCHEM_BOND_DEF_STEREO_COUNT>
0

> <PUBCHEM_BOND_UDEF_STEREO_COUNT>
0

> <PUBCHEM_CACTVS_TAUTO_COUNT>
6

> <PUBCHEM_COMPONENT_COUNT>
1

> <PUBCHEM_COMPOUND_CID>
3002043

> <PUBCHEM_CONFORMER_DIVERSEORDER>
2
8
4
9
6
1
3
7
5

> <PUBCHEM_CONFORMER_ID>
002DCEBB00000002

> <PUBCHEM_CONFORMER_RMSD>
0.4

> <PUBCHEM_COORDINATE_TYPE>
2
5
10

> <PUBCHEM_EFFECTIVE_ROTOR_COUNT>
2

> <PUBCHEM_FEATURE_SELFOVERLAP>
30.488

> <PUBCHEM_HEAVY_ATOM_COUNT>
11

> <PUBCHEM_ISOTOPIC_ATOM_COUNT>
0

> <PUBCHEM_MMFF94_ENERGY>
11.1032

> <PUBCHEM_MMFF94_PARTIAL_CHARGES>
12
1 -0.38
11 0.5
16 0.15
2 -0.57
20 0.37
21 0.37
3 -0.49
4 -0.54
5 0.14
6 -0.12
8 0.62
9 -0.04

> <PUBCHEM_PHARMACOPHORE_FEATURES>
6
1 1 acceptor
1 10 hydrophobe
1 2 acceptor
1 3 donor
1 4 donor
6 3 4 6 8 9 11 rings

> <PUBCHEM_SHAPE_FINGERPRINT>
11062470 55 17458345242825180734
11206711 2 18335710386195510116
11401426 45 18411412929988227970
12032990 46 18410864286296842466
12251169 10 10447925088040133293
12897270 3 18410012126146252702
14128692 85 17916860339419601127
14576447 43 18271513299737917599
14911166 2 18408609179679936910
14993402 34 18201999941003922407
15757776 16 18412538808225341271
16945 1 18336558161257966634
20201158 50 18261111867882699763
21293036 1 18335139808153226606
21501502 16 18121502354108984370
23402539 116 18341607105847011550
23402655 69 18336254657831844989
23552423 10 17973447602843818218
2748010 2 18050016781074541122
528886 8 18410852183142208563

> <PUBCHEM_SHAPE_MULTIPOLES>
214.39
6.12
1.43
0.75
1.45
0.49
0.02
-1.02
1.76
-0.22
-0.13
0.17
-0.05
-0.07

> <PUBCHEM_SHAPE_SELFOVERLAP>
420.483

> <PUBCHEM_SHAPE_VOLUME>
130.3

> <RelativeEnergy>
3.17996

> <StereoisomerIndex>
1

> <TautomerIndex>
1

> <POSE_NUMBER>
1

> <LibDockScore>
80.4242

> <HotSpots>
7.21,9.27,-3.25,A,45,1
7.01,13.87,1.54,A,79,7
6.41,11.47,-0.06,A,67,9

> <-In-Situ Starting Energy>
-189.292083

> <-In-Situ Final Energy>
-20.6414573

> <In-Situ Gradient>
0.0009530493949

$$$$
3032338
  SciTegic09142310043D

 14 13  0  0  0  0            999 V2000
    6.4677   11.5758   -0.5836 S   0  0  0  1  0  0
    7.2002    9.4141   -2.0498 N   0  0  0  1  0  0
    6.6164   11.2580   -3.2812 N   0  0  0  1  0  0
    7.3711    8.5959   -3.2474 C   0  0  0  1  0  0
    8.7163    8.8593   -3.9334 C   0  0  0  1  0  0
    6.7897   10.6973   -2.0728 C   0  0  0  1  0  0
    7.2442   11.1084    0.3999 H   0  0
    7.3442    8.9854   -1.1577 H   0  0
    6.2219   12.1604   -3.4528 H   0  0
    6.5249    8.7638   -3.9174 H   0  0
    7.3148    7.5665   -2.9000 H   0  0
    9.5471    8.7568   -3.2356 H   0  0
    8.7519    9.8599   -4.3557 H   0  0
    8.8762    8.1548   -4.7496 H   0  0
  1  6  1  0
  2  4  1  0
  2  6  1  0
  3  6  2  0
  4  5  1  0
  1  7  1  0
  2  8  1  0
  3  9  1  0
  4 10  1  0
  4 11  1  0
  5 12  1  0
  5 13  1  0
  5 14  1  0
M  END
> <Name>
3032338

> <Binding Energy>
-30.3664

> <Ligand Energy>
-4.0137

> <Protein Energy>
-7801.1566

> <Complex Energy>
-7835.5367

> <Complex Entropy>
-31.4749

> <Protein Entropy>
-31.4717

> <Ligand Entropy>
-16.3679

> <Entropic Energy>
16.3647

> <AbsoluteEnergy>
5.05878

> <ConfNumber>
5

> <IonizationIndex>
1

> <MOL_NUMBER>
181

> <NumberOfIonizations>
1

> <NumberOfStereoisomers>
1

> <NumberOfTautomers>
3

> <PUBCHEM_ATOM_DEF_STEREO_COUNT>
0

> <PUBCHEM_ATOM_UDEF_STEREO_COUNT>
0

> <PUBCHEM_BOND_DEF_STEREO_COUNT>
0

> <PUBCHEM_BOND_UDEF_STEREO_COUNT>
0

> <PUBCHEM_CACTVS_TAUTO_COUNT>
3

> <PUBCHEM_COMPONENT_COUNT>
1

> <PUBCHEM_COMPOUND_CID>
3032338

> <PUBCHEM_CONFORMER_DIVERSEORDER>
1
6
11
12
3
13
2
10
7
5
8
9
4

> <PUBCHEM_CONFORMER_ID>
002E451200000001

> <PUBCHEM_CONFORMER_RMSD>
0.4

> <PUBCHEM_COORDINATE_TYPE>
2
5
10

> <PUBCHEM_EFFECTIVE_ROTOR_COUNT>
2

> <PUBCHEM_FEATURE_SELFOVERLAP>
15.264

> <PUBCHEM_HEAVY_ATOM_COUNT>
6

> <PUBCHEM_ISOTOPIC_ATOM_COUNT>
0

> <PUBCHEM_MMFF94_ENERGY>
1.9853

> <PUBCHEM_MMFF94_PARTIAL_CHARGES>
8
1 -0.38
13 0.37
14 0.37
2 -0.73
3 -0.8
4 0.3
6 0.5
9 0.37

> <PUBCHEM_PHARMACOPHORE_FEATURES>
3
1 1 acceptor
1 2 donor
1 3 donor

> <PUBCHEM_SHAPE_FINGERPRINT>
139733 1 8574423197652124602
14390081 3 14490197128112456822
16714656 1 16877947117939477615
20096714 4 18335137652206134073
21040471 1 17168132447393140251
23552449 11 17917417731643104626
24536 1 18272091659727502443
29004967 10 18412833473252177346
5460574 1 9295288330879865586

> <PUBCHEM_SHAPE_MULTIPOLES>
117.36
3.39
1.03
0.77
0.1
0.34
0.04
-0.59
0.69
-0.32
-0.03
0.23
-0.05
0.11

> <PUBCHEM_SHAPE_SELFOVERLAP>
198.163

> <PUBCHEM_SHAPE_VOLUME>
80.8

> <RelativeEnergy>
3.11637

> <StereoisomerIndex>
1

> <TautomerIndex>
3

> <POSE_NUMBER>
1

> <LibDockScore>
47.2359

> <HotSpots>
6.41,11.47,-0.06,A,67,1
7.21,9.27,-3.25,A,45,4
8.61,9.67,-3.85,A,41,5

> <-In-Situ Starting Energy>
-6.13581643

> <-In-Situ Final Energy>
17.6555406

> <In-Situ Gradient>
0.0007974457703

$$$$
3034683
  SciTegic09142310043D

 15 15  0  0  0  0            999 V2000
    8.4748    8.2292   -5.1668 S   0  0  0  1  0  0
    7.7294    8.6565   -2.6232 O   0  0  0  1  0  0
    7.1386   10.3451   -3.9518 N   0  0  0  1  0  0
    7.2641    9.5984   -1.6944 C   0  0  1  1  0  0
    6.7932   10.7317   -2.5910 C   0  0  0  1  0  0
    7.7225    9.1421   -3.8681 C   0  0  0  1  0  0
    6.1378    9.0043   -0.9127 C   0  0  0  1  0  0
    5.9465    9.2655    0.3833 C   0  0  0  1  0  0
    7.5806    7.3795   -5.6780 H   0  0
    8.0679    9.9417   -1.0435 H   0  0
    7.2733   11.6725   -2.3394 H   0  0
    5.7265   10.8627   -2.5131 H   0  0
    5.5452    8.2648   -1.4197 H   0  0
    6.5800    9.9510    0.9164 H   0  0
    5.1488    8.8019    0.9215 H   0  0
  1  6  1  0
  2  4  1  0
  2  6  1  0
  3  5  1  0
  3  6  2  0
  4  5  1  0
  4  7  1  0
  7  8  2  0
  1  9  1  0
  4 10  1  0
  5 11  1  0
  5 12  1  0
  7 13  1  0
  8 14  1  0
  8 15  1  0
M  END
> <Name>
3034683

> <Binding Energy>
-12.0805

> <Ligand Energy>
18.6111

> <Protein Energy>
-7801.1566

> <Complex Energy>
-7794.626

> <Complex Entropy>
-31.4755

> <Protein Entropy>
-31.4717

> <Ligand Entropy>
-16.9323

> <Entropic Energy>
16.9284

> <AbsoluteEnergy>
14.3354

> <ConfNumber>
1

> <IonizationIndex>
1

> <MOL_NUMBER>
183

> <NumberOfIonizations>
1

> <NumberOfStereoisomers>
1

> <NumberOfTautomers>
2

> <PUBCHEM_ATOM_DEF_STEREO_COUNT>
0

> <PUBCHEM_ATOM_UDEF_STEREO_COUNT>
1

> <PUBCHEM_BOND_DEF_STEREO_COUNT>
0

> <PUBCHEM_BOND_UDEF_STEREO_COUNT>
0

> <PUBCHEM_CACTVS_TAUTO_COUNT>
2

> <PUBCHEM_COMPONENT_COUNT>
1

> <PUBCHEM_COMPOUND_CID>
3034683

> <PUBCHEM_CONFORMER_DIVERSEORDER>
1
2

> <PUBCHEM_CONFORMER_ID>
002E4E3B00000001

> <PUBCHEM_CONFORMER_RMSD>
0.4

> <PUBCHEM_COORDINATE_TYPE>
2
5
10

> <PUBCHEM_EFFECTIVE_ROTOR_COUNT>
1.8

> <PUBCHEM_FEATURE_SELFOVERLAP>
15.223

> <PUBCHEM_HEAVY_ATOM_COUNT>
8

> <PUBCHEM_ISOTOPIC_ATOM_COUNT>
0

> <PUBCHEM_MMFF94_ENERGY>
11.3224

> <PUBCHEM_MMFF94_PARTIAL_CHARGES>
12
1 -0.38
12 0.37
13 0.15
14 0.15
15 0.15
2 -0.43
3 -0.73
4 0.42
5 0.3
6 0.59
7 -0.29
8 -0.3

> <PUBCHEM_PHARMACOPHORE_FEATURES>
3
1 1 acceptor
1 8 hydrophobe
5 2 3 4 5 6 rings

> <PUBCHEM_SHAPE_FINGERPRINT>
10857977 72 8574429786000081620
12716758 59 18343018934537771562
12897270 3 17489591168758779036
14325111 11 18408886226228795604
14390081 3 18410009918649308485
16714656 1 18411421747287015861
20653085 51 18187661227183108204
21040471 1 18340758278316879659
21293036 1 18202559592564839565
23235685 24 18411416193957794077
23552423 10 18408602526691595402
29004967 10 10879982554087474870

> <PUBCHEM_SHAPE_MULTIPOLES>
157.64
3.92
1.32
0.73
0.4
0.42
-0.01
-1.97
0.54
-0.24
0.05
0.02
-0.03
-0.08

> <PUBCHEM_SHAPE_SELFOVERLAP>
303.085

> <PUBCHEM_SHAPE_VOLUME>
98.8

> <RelativeEnergy>
0

> <StereoisomerIndex>
1

> <TautomerIndex>
2

> <POSE_NUMBER>
1

> <LibDockScore>
66.0368

> <HotSpots>
8.41,8.07,-4.86,A,38,1
7.01,11.07,-2.85,A,47,5
5.81,9.67,0.14,A,68,8

> <-In-Situ Starting Energy>
-6748.00207

> <-In-Situ Final Energy>
-6.80348209

> <In-Situ Gradient>
0.0008180321392

$$$$
31226
  SciTegic09142310043D

 27 27  0  0  0  0            999 V2000
    6.3626   11.8833   -0.8557 O   0  0  0  1  0  0
    6.4670   13.4822    0.7311 O   0  0  0  1  0  0
    6.4311    9.2821   -1.9081 C   0  0  0  1  0  0
    6.9949    9.6357   -0.5390 C   0  0  0  1  0  0
    7.4624    8.9258   -2.9256 C   0  0  0  1  0  0
    6.2345   10.7942    0.0564 C   0  0  0  1  0  0
    7.5439    7.6656   -3.4024 C   0  0  0  1  0  0
    8.3443    9.8260   -3.4327 C   0  0  0  1  0  0
    8.2334    7.3219   -4.5579 C   0  0  0  1  0  0
    9.1200    9.5069   -4.5501 C   0  0  0  1  0  0
    9.0333    8.2656   -5.1502 C   0  0  0  1  0  0
    6.5477   13.1134   -0.4290 C   0  0  0  1  0  0
    6.8202   14.0464   -1.6000 C   0  0  0  1  0  0
    5.8861   10.1191   -2.3403 H   0  0
    5.7204    8.4618   -1.8042 H   0  0
    6.8892    8.7790    0.1188 H   0  0
    8.0413    9.9081   -0.6163 H   0  0
    6.5432   11.0566    1.0676 H   0  0
    5.1916   10.4890    0.0872 H   0  0
    7.1112    6.9160   -2.7572 H   0  0
    8.3594   10.7347   -2.8670 H   0  0
    8.2117    6.3092   -4.9286 H   0  0
    9.7596   10.2278   -5.0102 H   0  0
    9.6274    8.0019   -6.0124 H   0  0
    7.6279   13.6404   -2.1937 H   0  0
    7.1100   15.0233   -1.2565 H   0  0
    5.9532   14.1674   -2.2369 H   0  0
  1  6  1  0
  1 12  1  0
  2 12  2  0
  3  4  1  0
  3  5  1  0
  4  6  1  0
  5  7  2  0
  5  8  1  0
  7  9  1  0
  8 10  2  0
  9 11  2  0
 10 11  1  0
 12 13  1  0
  3 14  1  0
  3 15  1  0
  4 16  1  0
  4 17  1  0
  6 18  1  0
  6 19  1  0
  7 20  1  0
  8 21  1  0
  9 22  1  0
 10 23  1  0
 11 24  1  0
 13 25  1  0
 13 26  1  0
 13 27  1  0
M  END
> <Name>
31226

> <Binding Energy>
-17.1327

> <Ligand Energy>
-10.0391

> <Protein Energy>
-7801.1566

> <Complex Energy>
-7828.3284

> <Complex Entropy>
-31.4772

> <Protein Entropy>
-31.4717

> <Ligand Entropy>
-18.0877

> <Entropic Energy>
18.0823

> <AbsoluteEnergy>
25.1826

> <ConfNumber>
80

> <IonizationIndex>
1

> <MOL_NUMBER>
187

> <NumberOfIonizations>
1

> <NumberOfStereoisomers>
1

> <NumberOfTautomers>
1

> <PUBCHEM_ATOM_DEF_STEREO_COUNT>
0

> <PUBCHEM_ATOM_UDEF_STEREO_COUNT>
0

> <PUBCHEM_BOND_DEF_STEREO_COUNT>
0

> <PUBCHEM_BOND_UDEF_STEREO_COUNT>
0

> <PUBCHEM_CACTVS_TAUTO_COUNT>
1

> <PUBCHEM_COMPONENT_COUNT>
1

> <PUBCHEM_COMPOUND_CID>
31226

> <PUBCHEM_CONFORMER_DIVERSEORDER>
1
46
39
32
45
65
42
33
67
58
34
49
47
48
52
59
21
29
13
28
68
27
38
70
26
22
11
31
53
64
2
24
14
10
63
50
43
69
3
25
18
23
66
30
19
60
20
5
16
4
54
17
9
56
40
55
51
15
44
8
12
57
36
35
37
41
6
62
7
61

> <PUBCHEM_CONFORMER_ID>
000079FA00000001

> <PUBCHEM_CONFORMER_RMSD>
0.6

> <PUBCHEM_COORDINATE_TYPE>
2
5
10

> <PUBCHEM_EFFECTIVE_ROTOR_COUNT>
5

> <PUBCHEM_FEATURE_SELFOVERLAP>
10.148

> <PUBCHEM_HEAVY_ATOM_COUNT>
13

> <PUBCHEM_ISOTOPIC_ATOM_COUNT>
0

> <PUBCHEM_MMFF94_ENERGY>
21.9471

> <PUBCHEM_MMFF94_PARTIAL_CHARGES>
17
1 -0.43
10 -0.15
11 -0.15
12 0.66
13 0.06
2 -0.57
20 0.15
21 0.15
22 0.15
23 0.15
24 0.15
3 0.14
5 -0.14
6 0.28
7 -0.15
8 -0.15
9 -0.15

> <PUBCHEM_PHARMACOPHORE_FEATURES>
2
1 2 acceptor
6 5 7 8 9 10 11 rings

> <PUBCHEM_SHAPE_FINGERPRINT>
10014705 185 15841541990020042944
10680689 15 17561363993389974999
10912923 1 18040437706913820608
114248 4 12035449449650756694
12251169 10 18411140242620113189
13167823 11 17894627037537763578
13214271 11 17846497028660435821
13675066 3 17561082523008911780
13897977 58 18410300224047144397
14123238 8 17966972733655031198
14455015 7 15502375591340338808
17834072 33 18040439931622471172
17834076 25 13110963136987051328
19050596 39 18333449850365402044
200 152 16081085991599658693
20279233 1 17418381289558813919
20432913 95 16877660141309991048
204376 136 15626222433345661540
20645464 45 17632583751568401191
20645477 56 17132106961962850896
20645477 70 15068613865116423184
20828058 21 18342460343997111934
20828058 44 18409728460852220154
20871999 31 8790887350837938043
22485316 2 14851604392533309369
22646028 1 17458341944495876274
2297311 6 18201173095158674645
23402539 116 17095518491839340685
23402655 69 11887956557870635570
23403322 49 13695584442869234569
23559900 14 18057622987677525662
23590187 198 17894907404434075834
42 15 18334294258168379850
449060 50 17060621105133382308
57265010 4 18413672413683087395
573450 72 18260823787124721865
90127 26 17346602975985592504

> <PUBCHEM_SHAPE_MULTIPOLES>
255.8
11.48
1.07
1.01
11.31
0
-0.04
0.11
-3.22
-1.45
-0.05
0.77
0
-0.15

> <PUBCHEM_SHAPE_SELFOVERLAP>
513.238

> <PUBCHEM_SHAPE_VOLUME>
150.2

> <RelativeEnergy>
10.4235

> <StereoisomerIndex>
1

> <TautomerIndex>
1

> <POSE_NUMBER>
1

> <LibDockScore>
89.4471

> <HotSpots>
7.21,9.27,-3.25,A,45,3
8.01,10.07,-2.25,A,50,4
6.41,14.07,-0.85,A,60,13

> <-In-Situ Starting Energy>
-2936.44919

> <-In-Situ Final Energy>
-2.43811702

> <In-Situ Gradient>
0.0009105312216

$$$$
31244
  SciTegic09142310043D

 18 18  0  0  0  0            999 V2000
    5.9694   11.0611   -0.5679 O   0  0  0  1  0  0
    8.0584    6.5043   -4.6866 O   0  0  0  1  0  0
    6.3549   10.1716   -1.5558 C   0  0  0  1  0  0
    7.4548    8.5521   -3.5520 C   0  0  0  1  0  0
    6.2728    8.7856   -1.4629 C   0  0  0  1  0  0
    6.8982   10.7326   -2.6822 C   0  0  0  1  0  0
    6.8223    7.9917   -2.4544 C   0  0  0  1  0  0
    7.4828    9.9292   -3.6442 C   0  0  0  1  0  0
    8.0942    7.7263   -4.5911 C   0  0  0  1  0  0
    6.0923   10.4672    0.7007 C   0  0  0  1  0  0
    5.8121    8.3002   -0.6156 H   0  0
    6.8760   11.8041   -2.7510 H   0  0
    6.8088    6.9207   -2.3123 H   0  0
    7.9971   10.3783   -4.4529 H   0  0
    8.6409    8.3229   -5.3142 H   0  0
    6.9783    9.8489    0.7713 H   0  0
    5.2077    9.8603    0.8940 H   0  0
    6.2063   11.2270    1.4716 H   0  0
  1  3  1  0
  1 10  1  0
  2  9  2  0
  3  5  2  0
  3  6  1  0
  4  7  2  0
  4  8  1  0
  4  9  1  0
  5  7  1  0
  6  8  2  0
  5 11  1  0
  6 12  1  0
  7 13  1  0
  8 14  1  0
  9 15  1  0
 10 16  1  0
 10 17  1  0
 10 18  1  0
M  END
> <Name>
31244

> <Binding Energy>
-8.4385

> <Ligand Energy>
9.0855

> <Protein Energy>
-7801.1566

> <Complex Energy>
-7800.5096

> <Complex Entropy>
-31.4757

> <Protein Entropy>
-31.4717

> <Ligand Entropy>
-17.1792

> <Entropic Energy>
17.1752

> <AbsoluteEnergy>
19.7172

> <ConfNumber>
1

> <IonizationIndex>
1

> <MOL_NUMBER>
188

> <NumberOfIonizations>
1

> <NumberOfStereoisomers>
1

> <NumberOfTautomers>
1

> <PUBCHEM_ATOM_DEF_STEREO_COUNT>
0

> <PUBCHEM_ATOM_UDEF_STEREO_COUNT>
0

> <PUBCHEM_BOND_DEF_STEREO_COUNT>
0

> <PUBCHEM_BOND_UDEF_STEREO_COUNT>
0

> <PUBCHEM_CACTVS_TAUTO_COUNT>
1

> <PUBCHEM_COMPONENT_COUNT>
1

> <PUBCHEM_COMPOUND_CID>
31244

> <PUBCHEM_CONFORMER_DIVERSEORDER>
1
2

> <PUBCHEM_CONFORMER_ID>
00007A0C00000001

> <PUBCHEM_CONFORMER_RMSD>
0.4

> <PUBCHEM_COORDINATE_TYPE>
2
5
10

> <PUBCHEM_EFFECTIVE_ROTOR_COUNT>
2

> <PUBCHEM_FEATURE_SELFOVERLAP>
15.223

> <PUBCHEM_HEAVY_ATOM_COUNT>
10

> <PUBCHEM_ISOTOPIC_ATOM_COUNT>
0

> <PUBCHEM_MMFF94_ENERGY>
32.4918

> <PUBCHEM_MMFF94_PARTIAL_CHARGES>
15
1 -0.36
10 0.28
11 0.15
12 0.15
13 0.15
14 0.15
15 0.06
2 -0.57
3 0.08
4 0.09
5 -0.15
6 -0.15
7 -0.15
8 -0.15
9 0.42

> <PUBCHEM_PHARMACOPHORE_FEATURES>
3
1 1 acceptor
1 2 acceptor
6 3 4 5 6 7 8 rings

> <PUBCHEM_SHAPE_FINGERPRINT>
10219947 1 18260831475184883221
11062470 55 18410573980941094245
13380535 76 18410572877113634019
14325111 11 18410856559639796064
16945 1 18410573989446483398
193761 8 17618223252898066465
20871998 184 18128824237977190327
21040471 1 18410574015295531875
23235685 24 18410569582809992229
23402655 69 18268695127435653765
23552423 10 17972315385203184638
2748010 2 18123468555429162581
29004967 10 18114471080164957227
369184 2 16370998633432050778
528886 8 18411412916918690435
53812653 166 18342171172064681384

> <PUBCHEM_SHAPE_MULTIPOLES>
194.06
4.83
1.41
0.6
0.28
0.27
0
-1.63
0
0.04
0
0.01
0.01
0

> <PUBCHEM_SHAPE_SELFOVERLAP>
401.962

> <PUBCHEM_SHAPE_VOLUME>
110.9

> <RelativeEnergy>
0

> <StereoisomerIndex>
1

> <TautomerIndex>
1

> <POSE_NUMBER>
1

> <LibDockScore>
80.59

> <HotSpots>
7.41,7.27,-6.05,P,52,2
8.61,9.67,-3.85,A,41,8
5.81,9.67,0.14,A,68,10

> <-In-Situ Starting Energy>
-41.3588232

> <-In-Situ Final Energy>
4.24418519

> <In-Situ Gradient>
0.0008526935014

$$$$
31276
  SciTegic09142310043D

 23 22  0  0  0  0            999 V2000
    8.1694    8.4142   -3.5645 O   0  0  0  1  0  0
    9.1234    8.8760   -5.5539 O   0  0  0  1  0  0
    6.2868    9.7325   -1.6128 C   0  0  0  1  0  0
    7.7190   10.1612   -1.8827 C   0  0  0  1  0  0
    8.3194    9.7789   -3.2329 C   0  0  0  1  0  0
    6.0483    8.2453   -1.3152 C   0  0  0  1  0  0
    5.7768   10.5256   -0.4135 C   0  0  0  1  0  0
    8.5995    8.0927   -4.7670 C   0  0  0  1  0  0
    8.3837    6.6426   -5.1108 C   0  0  0  1  0  0
    5.7568   10.0101   -2.5179 H   0  0
    7.6782   11.2445   -1.9208 H   0  0
    8.3596    9.9265   -1.0433 H   0  0
    9.3864   10.0099   -3.2218 H   0  0
    7.8225   10.3659   -4.0085 H   0  0
    6.2976    8.0288   -0.2782 H   0  0
    6.5817    7.5836   -1.9939 H   0  0
    5.0060    7.9597   -1.3761 H   0  0
    5.8292   11.5963   -0.5919 H   0  0
    6.3701   10.3152    0.4785 H   0  0
    4.7550   10.2347   -0.1948 H   0  0
    7.6704    6.6006   -5.9264 H   0  0
    7.9704    6.0973   -4.2676 H   0  0
    9.3426    6.2153   -5.3924 H   0  0
  1  5  1  0
  1  8  1  0
  2  8  2  0
  3  4  1  0
  3  6  1  0
  3  7  1  0
  4  5  1  0
  8  9  1  0
  3 10  1  0
  4 11  1  0
  4 12  1  0
  5 13  1  0
  5 14  1  0
  6 15  1  0
  6 16  1  0
  6 17  1  0
  7 18  1  0
  7 19  1  0
  7 20  1  0
  9 21  1  0
  9 22  1  0
  9 23  1  0
M  END
> <Name>
31276

> <Binding Energy>
-9.3564

> <Ligand Energy>
-11.6826

> <Protein Energy>
-7801.1566

> <Complex Energy>
-7822.1957

> <Complex Entropy>
-31.4756

> <Protein Entropy>
-31.4717

> <Ligand Entropy>
-17.1708

> <Entropic Energy>
17.167

> <AbsoluteEnergy>
11.4953

> <ConfNumber>
31

> <IonizationIndex>
1

> <MOL_NUMBER>
189

> <NumberOfIonizations>
1

> <NumberOfStereoisomers>
1

> <NumberOfTautomers>
1

> <PUBCHEM_ATOM_DEF_STEREO_COUNT>
0

> <PUBCHEM_ATOM_UDEF_STEREO_COUNT>
0

> <PUBCHEM_BOND_DEF_STEREO_COUNT>
0

> <PUBCHEM_BOND_UDEF_STEREO_COUNT>
0

> <PUBCHEM_CACTVS_TAUTO_COUNT>
1

> <PUBCHEM_COMPONENT_COUNT>
1

> <PUBCHEM_COMPOUND_CID>
31276

> <PUBCHEM_CONFORMER_DIVERSEORDER>
1
5
7
11
10
9
8
4
6
2
3

> <PUBCHEM_CONFORMER_ID>
00007A2C00000001

> <PUBCHEM_CONFORMER_RMSD>
0.6

> <PUBCHEM_COORDINATE_TYPE>
2
5
10

> <PUBCHEM_EFFECTIVE_ROTOR_COUNT>
4

> <PUBCHEM_FEATURE_SELFOVERLAP>
10.148

> <PUBCHEM_HEAVY_ATOM_COUNT>
9

> <PUBCHEM_ISOTOPIC_ATOM_COUNT>
0

> <PUBCHEM_MMFF94_ENERGY>
8.1889

> <PUBCHEM_MMFF94_PARTIAL_CHARGES>
5
1 -0.43
2 -0.57
5 0.28
8 0.66
9 0.06

> <PUBCHEM_PHARMACOPHORE_FEATURES>
2
1 2 acceptor
3 3 6 7 hydrophobe

> <PUBCHEM_SHAPE_FINGERPRINT>
10857977 72 18411132554491444785
11062470 55 16009028397604084727
12162725 195 18113338600210117380
12932741 1 17346321526557288830
12932764 1 17847059969480584023
14325111 11 18411982433861380391
14390081 3 18130783438821994121
170605 34 17531821258914101028
21028194 46 18272652329037679446
23552423 10 18191028902313031343
3248919 1 18113618975738549243

> <PUBCHEM_SHAPE_MULTIPOLES>
173.48
6.11
1.04
0.96
2.38
0.14
-0.1
0.27
-0.19
0.25
0.05
-0.98
0.14
-0.27

> <PUBCHEM_SHAPE_SELFOVERLAP>
315.005

> <PUBCHEM_SHAPE_VOLUME>
111.8

> <RelativeEnergy>
5.00938

> <StereoisomerIndex>
1

> <TautomerIndex>
1

> <POSE_NUMBER>
1

> <LibDockScore>
73.0936

> <HotSpots>
5.81,8.67,-0.66,A,61,6
6.21,10.67,0.94,A,74,7
8.41,8.07,-4.86,A,38,9

> <-In-Situ Starting Energy>
-1470.28603

> <-In-Situ Final Energy>
19.3063965

> <In-Situ Gradient>
0.0009520458051

$$$$
31553
  SciTegic09142310043D

 57 61  0  0  0  0            999 V2000
   19.4200   -1.0479  -10.6259 O   0  0  0  1  0  0
   21.7757    0.0978  -11.7981 O   0  0  0  1  0  0
   16.1199   -0.5761  -14.0882 O   0  0  0  1  0  0
   16.2262    3.1072  -13.7348 O   0  0  0  1  0  0
   22.4551   -3.3763  -10.7823 O   0  0  0  1  0  0
   13.5868    2.5873  -14.1605 O   0  0  0  1  0  0
   11.4942    0.9849  -14.0680 O   0  0  0  1  0  0
   22.0221    3.6090   -8.1351 O   0  0  0  1  0  0
   12.5002   -3.6713  -14.1776 O   0  0  0  1  0  0
   19.8610    3.7138   -6.7324 O   0  0  0  1  0  0
   20.6115   -0.8936   -9.8903 C   0  0  1  1  0  0
   21.8352   -0.9494  -10.8365 C   0  0  1  1  0  0
   16.6338    0.7432  -14.1693 C   0  0  2  1  0  0
   17.9883    0.6814  -13.5105 C   0  0  0  1  0  0
   15.7486    1.7952  -13.4751 C   0  0  2  1  0  0
   19.3634   -0.2227  -11.7414 C   0  0  0  1  0  0
   20.5054    0.3110  -12.3324 C   0  0  0  1  0  0
   20.4422    0.3680   -9.0850 C   0  0  0  1  0  0
   18.1230   -0.0214  -12.3207 C   0  0  0  1  0  0
   21.9860   -2.2970  -11.5801 C   0  0  0  1  0  0
   19.1236    1.2461  -14.0821 C   0  0  0  1  0  0
   14.3072    1.6484  -13.9813 C   0  0  0  1  0  0
   20.3724    1.0713  -13.4874 C   0  0  0  1  0  0
   13.8206    0.2812  -14.1380 C   0  0  0  1  0  0
   14.7460   -0.7551  -14.2017 C   0  0  0  1  0  0
   21.4051    1.3729   -9.0234 C   0  0  0  1  0  0
   19.2452    0.5326   -8.3946 C   0  0  0  1  0  0
   12.4538   -0.0088  -14.1475 C   0  0  0  1  0  0
   14.3078   -2.0679  -14.2839 C   0  0  0  1  0  0
   21.1756    2.5113   -8.2554 C   0  0  0  1  0  0
   19.0275    1.6501   -7.6117 C   0  0  0  1  0  0
   12.9510   -2.3641  -14.2296 C   0  0  0  1  0  0
   12.0286   -1.3305  -14.1813 C   0  0  0  1  0  0
   20.0102    2.6113   -7.5269 C   0  0  0  1  0  0
   23.2228    3.5128   -8.8645 C   0  0  0  1  0  0
   17.0864    3.2291  -13.3407 H   0  0
   21.7909   -3.6416  -10.1519 H   0  0
   11.9237    1.8402  -14.0935 H   0  0
   13.1267   -4.2564  -14.5986 H   0  0
   20.6449    4.2176   -6.8914 H   0  0
   20.6726   -1.7014   -9.1624 H   0  0
   22.7452   -0.8161  -10.2507 H   0  0
   16.7496    1.0014  -15.2236 H   0  0
   15.7057    1.6176  -12.3947 H   0  0
   17.2608   -0.4723  -11.8534 H   0  0
   21.0699   -2.5791  -12.1062 H   0  0
   22.7312   -2.1603  -12.3642 H   0  0
   19.0356    1.7986  -15.0060 H   0  0
   21.2583    1.4951  -13.9339 H   0  0
   22.3238    1.2670   -9.5749 H   0  0
   18.4802   -0.2285   -8.4418 H   0  0
   15.0638   -2.8376  -14.3364 H   0  0
   18.1213    1.7530   -7.0342 H   0  0
   10.9736   -1.5581  -14.1578 H   0  0
   23.0196    3.4267   -9.9328 H   0  0
   23.8189    2.6660   -8.5201 H   0  0
   23.8202    4.4098   -8.7209 H   0  0
  1 11  1  0
  1 16  1  0
  2 12  1  0
  2 17  1  0
  3 13  1  0
  3 25  1  0
  4 15  1  0
  5 20  1  0
  6 22  2  0
  7 28  1  0
  8 30  1  0
  8 35  1  0
  9 32  1  0
 10 34  1  0
 11 12  1  0
 11 18  1  0
 12 20  1  0
 13 14  1  0
 13 15  1  0
 14 19  2  0
 14 21  1  0
 15 22  1  0
 16 17  2  0
 16 19  1  0
 17 23  1  0
 18 26  2  0
 18 27  1  0
 21 23  2  0
 22 24  1  0
 24 25  2  0
 24 28  1  0
 25 29  1  0
 26 30  1  0
 27 31  2  0
 28 33  2  0
 29 32  2  0
 30 34  2  0
 31 34  1  0
 32 33  1  0
  4 36  1  0
  5 37  1  0
  7 38  1  0
  9 39  1  0
 10 40  1  0
 11 41  1  0
 12 42  1  0
 13 43  1  0
 15 44  1  0
 19 45  1  0
 20 46  1  0
 20 47  1  0
 21 48  1  0
 23 49  1  0
 26 50  1  0
 27 51  1  0
 29 52  1  0
 31 53  1  0
 33 54  1  0
 35 55  1  0
 35 56  1  0
 35 57  1  0
M  END
> <Name>
31553

> <Binding Energy>
-68.7049

> <Ligand Energy>
50.88

> <Protein Energy>
-7801.1566

> <Complex Energy>
-7818.9815

> <Complex Entropy>
-31.4919

> <Protein Entropy>
-31.4717

> <Ligand Entropy>
-20.7398

> <Entropic Energy>
20.7197

> <AbsoluteEnergy>
61.3996

> <ConfNumber>
89

> <Ionization pH>
8.14_PPP

> <IonizationIndex>
1

> <MOL_NUMBER>
191

> <NumberOfIonizations>
2

> <NumberOfStereoisomers>
1

> <NumberOfTautomers>
3

> <PUBCHEM_ATOM_DEF_STEREO_COUNT>
4

> <PUBCHEM_ATOM_UDEF_STEREO_COUNT>
0

> <PUBCHEM_BOND_DEF_STEREO_COUNT>
0

> <PUBCHEM_BOND_UDEF_STEREO_COUNT>
0

> <PUBCHEM_CACTVS_TAUTO_COUNT>
117

> <PUBCHEM_COMPONENT_COUNT>
1

> <PUBCHEM_COMPOUND_CID>
31553

> <PUBCHEM_CONFORMER_DIVERSEORDER>
1
106
130
72
44
97
119
114
105
62
139
32
117
75
43
79
127
29
2
18
101
98
137
63
140
126
56
93
4
38
67
30
125
115
19
142
77
92
96
50
133
129
121
124
107
95
141
22
3
70
103
99
11
49
108
90
64
76
20
131
109
59
65
122
14
71
9
7
69
102
55
51
37
82
134
57
81
74
113
47
80
87
13
58
60
110
123
40
39
23
111
138
21
83
135
128
36
16
48
112
54
68
25
118
10
31
84
94
120
46
91
66
132
27
17
100
35
12
45
53
26
28
8
143
41
33
86
78
136
5
88
85
24
15
34
61
6
89
73
52
42
116
104

> <PUBCHEM_CONFORMER_ID>
00007B4100000001

> <PUBCHEM_CONFORMER_RMSD>
0.8

> <PUBCHEM_COORDINATE_TYPE>
2
5
10

> <PUBCHEM_EFFECTIVE_ROTOR_COUNT>
5.4

> <PUBCHEM_FEATURE_SELFOVERLAP>
86.363

> <PUBCHEM_HEAVY_ATOM_COUNT>
35

> <PUBCHEM_ISOTOPIC_ATOM_COUNT>
0

> <PUBCHEM_MMFF94_ENERGY>
117.2273

> <PUBCHEM_MMFF94_PARTIAL_CHARGES>
48
1 -0.36
10 -0.53
11 0.42
12 0.28
13 0.42
14 -0.14
15 0.34
16 0.08
17 0.08
18 -0.14
19 -0.15
2 -0.36
20 0.28
21 -0.15
22 0.42
23 -0.15
24 0.09
25 0.08
26 -0.15
27 -0.15
28 0.08
29 -0.15
3 -0.36
30 0.08
31 -0.15
32 0.08
33 -0.15
34 0.08
35 0.28
4 -0.68
40 0.15
43 0.15
44 0.15
45 0.15
46 0.15
47 0.15
48 0.4
49 0.15
5 -0.68
50 0.15
51 0.4
52 0.45
53 0.45
54 0.45
6 -0.57
7 -0.53
8 -0.36
9 -0.53

> <PUBCHEM_PHARMACOPHORE_FEATURES>
17
1 1 acceptor
1 10 donor
1 2 acceptor
1 3 acceptor
1 4 acceptor
1 4 donor
1 5 acceptor
1 5 donor
1 6 acceptor
1 7 donor
1 8 acceptor
1 9 donor
6 1 2 11 12 16 17 rings
6 14 16 17 19 21 23 rings
6 18 26 27 30 31 34 rings
6 24 25 28 29 32 33 rings
6 3 13 15 22 24 25 rings

> <PUBCHEM_SHAPE_FINGERPRINT>
10 15 17167864179535985733
10319926 262 16081088130831053623
10554248 39 18271517607183797190
11273773 42 18131630114737235673
11331351 85 17341806721930767490
11410812 94 15984835809442061408
11475781 23 14548730660599342899
1200032 147 18261399966410956138
12236239 1 17703214110984409639
12390115 104 18339364174793061387
12422481 6 17168409546220066172
12975358 362 18113626655568356525
13383665 225 17897179102699992046
13627167 48 17988086595145633201
13726171 33 17753345450484528780
13878862 14 18264752316780893310
14118638 360 18341604979791363983
14150022 121 18192438687285454051
14294032 229 18115598195579777822
14747281 78 17986697925002656662
14840074 17 18343019974247294581
15064981 194 17844523512963511917
15081414 286 18334011688133569924
15131766 46 18342727500128403157
15183329 4 16630811006045310861
15297060 5 18262806293528619900
15513586 35 17100879916695261580
15519825 34 14129346247030757713
15530120 55 16055743446839517748
15685185 35 18270963578072979433
1577012 14 17846498115419095617
18393751 57 17967530160776745995
19304671 126 17846225496834241400
19309040 13 18271245023348519718
19377110 9 13118005491635712846
19958102 18 13470692533626197813
20691028 202 18410857659320566881
21033648 144 18409718561380163463
21033648 29 17604143723896396471
21033650 10 15984834717898057707
22122407 14 18198067972070789209
22311459 1 18194961847111797898
23081809 10 17917703587702806283
23522609 53 17846508002265220697
23559900 14 18412536597262079170
23569914 152 16555962723111461636
249057 25 17845636067890254575
25269216 80 16988277694639972823
2748736 6 18411409644169779584
312425 54 14201381764514686744
3178227 256 18188490151983139978
34797466 226 14404602360167732363
3504750 166 12035711108086252483
3610482 184 17775000211222055983
38570 142 18131361799355456747
397830 11 16370727041001203449
3986486 107 17917446349664962484
4258327 124 18335132129653749535
42767 28 15339126761926265012
437795 70 16917355856557446808
50009960 94 11813968166171908276
5104073 3 18334569161666611994
513532 50 16199858554027367706
5364581 5 16877949386152046525
57527293 21 17458338662977929842
57724786 102 18410855443238800522
59682541 52 17060069133738810252
6608658 132 17632859699001973345
6697151 62 17320108971699185699
6712543 237 14779256502231170161
9962374 69 18265598919212919946

> <PUBCHEM_SHAPE_MULTIPOLES>
661.59
21.8
3.61
2.26
6.27
2.07
-0.73
-21.11
0.45
-6.6
0.51
2.19
-1.41
-2.1

> <PUBCHEM_SHAPE_SELFOVERLAP>
1473.277

> <PUBCHEM_SHAPE_VOLUME>
349.4

> <RelativeEnergy>
5.52781

> <StereoisomerIndex>
1

> <TautomerIndex>
1

> <POSE_NUMBER>
2

> <LibDockScore>
114.1223

> <HotSpots>
21.61,-3.53,-8.86,P,36,5
11.41,-3.13,-14.46,P,20,9
21.01,4.47,-7.25,P,45,10

> <-In-Situ Starting Energy>
-2603.90712

> <-In-Situ Final Energy>
21.5175298

> <In-Situ Gradient>
0.0009637000814

$$$$
354616
  SciTegic09142310043D

 22 23  0  0  0  0            999 V2000
    6.4967   -0.2425    2.1674 O   0  0  0  1  0  0
    6.2095    1.6810    3.2554 O   0  0  0  1  0  0
    7.1608    3.8605   -0.1475 N   0  0  0  1  0  0
    7.1924   -0.4243   -0.1632 C   0  0  0  1  0  0
    7.1169    1.0706   -0.1982 C   0  0  0  1  0  0
    7.3598   -0.9322    1.2673 C   0  0  0  1  0  0
    6.8737    1.7663    0.9788 C   0  0  0  1  0  0
    7.3116    1.8080   -1.3701 C   0  0  0  1  0  0
    6.5089    1.0884    2.2285 C   0  0  0  1  0  0
    6.9198    3.1534    0.9588 C   0  0  0  1  0  0
    7.3202    3.1934   -1.2907 C   0  0  0  1  0  0
    7.5047    1.1748   -2.6772 C   0  0  0  1  0  0
    6.5892    0.3368   -3.1931 C   0  0  0  1  0  0
    8.0670   -0.7272   -0.7314 H   0  0
    6.3002   -0.8524   -0.6203 H   0  0
    7.1442   -1.9994    1.3172 H   0  0
    8.3766   -0.7947    1.6289 H   0  0
    6.7472    3.7007    1.8767 H   0  0
    7.4574    3.7670   -2.1965 H   0  0
    8.3950    1.4148   -3.2267 H   0  0
    5.6802    0.0922   -2.6757 H   0  0
    6.7301   -0.1241   -4.1528 H   0  0
  1  6  1  0
  1  9  1  0
  2  9  2  0
  3 10  2  0
  3 11  1  0
  4  5  1  0
  4  6  1  0
  5  7  2  0
  5  8  1  0
  7  9  1  0
  7 10  1  0
  8 11  2  0
  8 12  1  0
 12 13  2  0
  4 14  1  0
  4 15  1  0
  6 16  1  0
  6 17  1  0
 10 18  1  0
 11 19  1  0
 12 20  1  0
 13 21  1  0
 13 22  1  0
M  END
> <Name>
354616

> <Binding Energy>
-31.2496

> <Ligand Energy>
21.2825

> <Protein Energy>
-7801.1566

> <Complex Energy>
-7811.1237

> <Complex Entropy>
-31.4763

> <Protein Entropy>
-31.4717

> <Ligand Entropy>
-17.8131

> <Entropic Energy>
17.8084

> <AbsoluteEnergy>
36.2247

> <ConfNumber>
4

> <Ionization pH>
7.5

> <IonizationIndex>
1

> <MOL_NUMBER>
199

> <NumberOfIonizations>
1

> <NumberOfStereoisomers>
1

> <NumberOfTautomers>
1

> <PUBCHEM_ATOM_DEF_STEREO_COUNT>
0

> <PUBCHEM_ATOM_UDEF_STEREO_COUNT>
0

> <PUBCHEM_BOND_DEF_STEREO_COUNT>
0

> <PUBCHEM_BOND_UDEF_STEREO_COUNT>
0

> <PUBCHEM_CACTVS_TAUTO_COUNT>
1

> <PUBCHEM_COMPONENT_COUNT>
1

> <PUBCHEM_COMPOUND_CID>
354616

> <PUBCHEM_CONFORMER_DIVERSEORDER>
1

> <PUBCHEM_CONFORMER_ID>
5693800000001

> <PUBCHEM_CONFORMER_RMSD>
0.6

> <PUBCHEM_COORDINATE_TYPE>
2
5
10

> <PUBCHEM_EFFECTIVE_ROTOR_COUNT>
1.6

> <PUBCHEM_FEATURE_SELFOVERLAP>
25.399

> <PUBCHEM_HEAVY_ATOM_COUNT>
13

> <PUBCHEM_ISOTOPIC_ATOM_COUNT>
0

> <PUBCHEM_MMFF94_ENERGY>
41.31

> <PUBCHEM_MMFF94_PARTIAL_CHARGES>
18
1 -0.43
10 0.16
11 0.16
12 -0.18
13 -0.3
18 0.15
19 0.15
2 -0.57
20 0.15
21 0.15
22 0.15
3 -0.62
4 0.14
5 -0.14
6 0.28
7 0.09
8 0.03
9 0.63

> <PUBCHEM_PHARMACOPHORE_FEATURES>
5
1 13 hydrophobe
1 2 acceptor
1 3 acceptor
6 1 4 5 6 7 9 rings
6 3 5 7 8 10 11 rings

> <PUBCHEM_SHAPE_FINGERPRINT>
10465860 71 18269578116523227974
10967382 1 18266458711213257074
11132069 177 18340481188797105922
12032990 46 18409737252518653194
13380535 220 18336264642881747669
14128692 85 18411139173088821292
14911166 2 18337665326385543549
14993402 34 18410853222513543239
16945 1 18337380539783280034
17990270 104 18266174131212535826
193761 8 18122063366736710472
19973954 147 18193838369159269259
20588541 1 18270684147442100662
20645476 183 17677637326790321030
20871998 184 18272651216788888630
21501502 16 18267588090038263308
2334 1 18265612271917005080
23402539 116 18270387283750491054
23419403 2 16542346598181594113
23463225 33 18335983047941579050
23552423 10 18118964934395540422
23559900 14 18342174424483864062
241688 4 18409161134237486232
2748010 2 18337666533055056101
5084963 1 18272930548418494035
528886 8 18339073787779816995
63268167 104 18337673130241081801
7364860 26 18126847329319061768

> <PUBCHEM_SHAPE_MULTIPOLES>
250.81
4.48
2.3
0.64
1.81
0.28
-0.01
-1
-0.13
-0.35
-0.16
0.04
-0.07
-0.15

> <PUBCHEM_SHAPE_SELFOVERLAP>
541.442

> <PUBCHEM_SHAPE_VOLUME>
136.7

> <RelativeEnergy>
4.00562

> <StereoisomerIndex>
1

> <TautomerIndex>
1

> <POSE_NUMBER>
1

> <LibDockScore>
70.5024

> <HotSpots>
6.61,-0.93,-0.06,A,65,6
7.61,2.87,-1.05,A,58,10
6.41,0.47,-4.25,A,40,12

> <-In-Situ Starting Energy>
-16.605851

> <-In-Situ Final Energy>
21.413835

> <In-Situ Gradient>
0.0009362879603

$$$$
373677
  SciTegic09142310043D

 64 64  0  0  0  0            999 V2000
   13.6760    4.6722  -12.0845 O   0  0  0  1  0  0
    9.9414    1.9838  -10.7981 O   0  0  0  1  0  0
   14.2339    0.3098  -10.4116 O   0  5  0  1  0  0
   10.9870   -1.0137  -10.2278 O   0  0  0  1  0  0
   11.7055    3.5317  -11.2853 C   0  0  0  1  0  0
   11.2720    4.5393  -10.1905 C   0  0  0  1  0  0
   11.0665    3.9944  -12.6281 C   0  0  0  1  0  0
   13.2130    3.5413  -11.4625 C   0  0  0  1  0  0
   11.1217    2.1512  -10.8488 C   0  0  0  1  0  0
   14.0458    2.5140  -11.1583 C   0  0  0  1  0  0
   12.0355    1.0879  -10.4047 C   0  0  0  1  0  0
   13.4744    1.2431  -10.6421 C   0  0  0  1  0  0
   11.7359    4.2819   -8.7749 C   0  0  0  1  0  0
   10.4381    2.9665  -13.5203 C   0  0  0  1  0  0
   15.5658    2.5511  -11.1817 C   0  0  0  1  0  0
   11.5202   -0.0915   -9.6704 C   0  0  0  1  0  0
   11.6024   -0.0189   -8.1215 C   0  0  0  1  0  0
   12.2219    5.1937   -7.9118 C   0  0  0  1  0  0
    9.1146    2.9394  -13.7292 C   0  0  0  1  0  0
   16.2824    3.8831  -11.2203 C   0  0  0  1  0  0
   13.0606    0.0600   -7.6435 C   0  0  0  1  0  0
   10.8910   -1.2086   -7.4645 C   0  0  0  1  0  0
   12.0802    6.6849   -8.0915 C   0  0  0  1  0  0
   12.7039    4.8147   -6.5340 C   0  0  0  1  0  0
    8.4522    2.0547  -14.7217 C   0  0  0  1  0  0
    8.1069    3.5484  -12.8030 C   0  0  0  1  0  0
   15.9523    5.0683  -10.6656 C   0  0  0  1  0  0
   14.9122    5.2987   -9.5991 C   0  0  0  1  0  0
   16.6967    6.3225  -11.0174 C   0  0  0  1  0  0
   14.5890    4.5811  -12.3103 H   0  0
   10.1852    4.5777  -10.1776 H   0  0
   11.5958    5.5324  -10.5001 H   0  0
   11.7881    4.5128  -13.2539 H   0  0
   10.3349    4.7775  -12.4317 H   0  0
   11.7636    3.2472   -8.4888 H   0  0
   11.1112    2.3243  -14.0579 H   0  0
   15.8702    1.9696  -12.0521 H   0  0
   15.9593    1.9974  -10.3272 H   0  0
   11.0879    0.8933   -7.8222 H   0  0
   17.1266    3.8623  -11.8884 H   0  0
   13.5349    0.9950   -7.9406 H   0  0
   13.6565   -0.7490   -8.0699 H   0  0
   13.1289   -0.0133   -6.5587 H   0  0
   11.4567   -2.1234   -7.6269 H   0  0
    9.8858   -1.3514   -7.8586 H   0  0
   10.8123   -1.0706   -6.3864 H   0  0
   11.3736    6.9334   -8.8822 H   0  0
   13.0411    7.1348   -8.3316 H   0  0
   11.7096    7.1491   -7.1793 H   0  0
   13.7894    4.9005   -6.4798 H   0  0
   12.4336    3.7863   -6.2917 H   0  0
   12.2732    5.4633   -5.7709 H   0  0
    9.1190    1.2749  -15.0545 H   0  0
    8.1860    2.6398  -15.5664 H   0  0
    7.5110    1.6790  -14.3531 H   0  0
    7.7046    4.4577  -13.2346 H   0  0
    8.5671    3.7642  -11.8423 H   0  0
    7.2753    2.8719  -12.6149 H   0  0
   15.2860    5.9395   -8.8055 H   0  0
   14.5896    4.3572   -9.1562 H   0  0
   14.0466    5.8149  -10.0112 H   0  0
   17.4446    6.1329  -11.7862 H   0  0
   17.1974    6.7113  -10.1360 H   0  0
   16.0138    7.0815  -11.3962 H   0  0
  1  8  1  0
  2  9  2  0
  3 12  1  0
  4 16  2  0
  5  6  1  0
  5  7  1  0
  5  8  1  0
  5  9  1  0
  6 13  1  0
  7 14  1  0
  8 10  2  0
  9 11  1  0
 10 12  1  0
 10 15  1  0
 11 12  2  0
 11 16  1  0
 13 18  2  0
 14 19  2  0
 15 20  1  0
 16 17  1  0
 17 21  1  0
 17 22  1  0
 18 23  1  0
 18 24  1  0
 19 25  1  0
 19 26  1  0
 20 27  2  0
 27 28  1  0
 27 29  1  0
  1 30  1  0
  6 31  1  0
  6 32  1  0
  7 33  1  0
  7 34  1  0
 13 35  1  0
 14 36  1  0
 15 37  1  0
 15 38  1  0
 17 39  1  0
 20 40  1  0
 21 41  1  0
 21 42  1  0
 21 43  1  0
 22 44  1  0
 22 45  1  0
 22 46  1  0
 23 47  1  0
 23 48  1  0
 23 49  1  0
 24 50  1  0
 24 51  1  0
 24 52  1  0
 25 53  1  0
 25 54  1  0
 25 55  1  0
 26 56  1  0
 26 57  1  0
 26 58  1  0
 28 59  1  0
 28 60  1  0
 28 61  1  0
 29 62  1  0
 29 63  1  0
 29 64  1  0
M  CHG  1   3  -1
M  END
> <Name>
373677

> <Binding Energy>
-12.9572

> <Ligand Energy>
142.1596

> <Protein Energy>
-7801.1566

> <Complex Energy>
-7671.9543

> <Complex Entropy>
-31.4855

> <Protein Entropy>
-31.4717

> <Ligand Entropy>
-20.0723

> <Entropic Energy>
20.0584

> <AbsoluteEnergy>
50.509

> <ConfNumber>
23

> <Ionization pH>
7.5

> <IonizationIndex>
1

> <MOL_NUMBER>
202

> <NumberOfIonizations>
1

> <NumberOfStereoisomers>
1

> <NumberOfTautomers>
3

> <PUBCHEM_ATOM_DEF_STEREO_COUNT>
0

> <PUBCHEM_ATOM_UDEF_STEREO_COUNT>
0

> <PUBCHEM_BOND_DEF_STEREO_COUNT>
0

> <PUBCHEM_BOND_UDEF_STEREO_COUNT>
0

> <PUBCHEM_CACTVS_TAUTO_COUNT>
19

> <PUBCHEM_COMPONENT_COUNT>
1

> <PUBCHEM_COMPOUND_CID>
373677

> <PUBCHEM_CONFORMER_DIVERSEORDER>
4
77
5
40
23
31
67
46
17
49
58
45
18
12
13
35
60
41
55
63
76
14
84
44
52
70
20
15
50
51
36
1
82
38
43
54
68
2
80
47
37
66
78
65
72
19
11
59
75
62
64
32
53
6
28
61
8
26
73
85
27
24
57
69
71
7
48
10
42
22
25
21
34
39
56
74
9
16
79
33
29
3
30
83
81

> <PUBCHEM_CONFORMER_ID>
0005B3AD00000004

> <PUBCHEM_CONFORMER_RMSD>
1

> <PUBCHEM_COORDINATE_TYPE>
2
5
10

> <PUBCHEM_EFFECTIVE_ROTOR_COUNT>
8.2

> <PUBCHEM_FEATURE_SELFOVERLAP>
45.672

> <PUBCHEM_HEAVY_ATOM_COUNT>
29

> <PUBCHEM_ISOTOPIC_ATOM_COUNT>
0

> <PUBCHEM_MMFF94_ENERGY>
66.6221

> <PUBCHEM_MMFF94_PARTIAL_CHARGES>
32
1 -0.53
10 -0.14
11 0.03
12 0.08
13 -0.29
14 -0.29
15 0.28
16 0.49
17 0.06
18 -0.28
19 -0.28
2 -0.57
20 -0.29
23 0.14
24 0.14
25 0.14
26 0.14
27 -0.28
28 0.14
29 0.14
3 -0.53
34 0.15
35 0.15
39 0.45
4 -0.57
40 0.15
41 0.45
5 0.2
6 0.14
7 0.14
8 -0.06
9 0.49

> <PUBCHEM_PHARMACOPHORE_FEATURES>
9
1 1 donor
1 2 acceptor
1 3 donor
1 4 acceptor
3 17 21 22 hydrophobe
3 18 23 24 hydrophobe
3 19 25 26 hydrophobe
3 27 28 29 hydrophobe
6 5 8 9 10 11 12 rings

> <PUBCHEM_SHAPE_FINGERPRINT>
11578080 2 16443350823529684950
12035759 4 18270955877153763238
12156800 1 17274811501994500064
12293681 4 16663728026534049253
12422481 6 18268142055083664121
12788726 201 18058727048034746719
13083527 12 18189622626730194248
133893 2 18114453544040386330
13583140 156 18187946004921280041
14955137 171 18193285087536226394
15238133 3 18058993057029235039
15324884 4 17406271032024694255
16945 1 17619397200714936206
17980427 23 18271507733380738698
20600515 1 16556193890693498863
22112679 90 18201430368010379347
23419403 2 16950841401592244426
23558518 356 17837217334784068184
23559900 14 18124899887688149187
244849 19 16877930612480411653
25147074 1 18341608230701122919
266924 1 18341608273745916991
3052486 1 17703500060710004511
3380486 77 17754697634252513834
394222 165 18267892538821921440
4340502 62 18117301296441749465
469060 322 17829853635125169418
53917941 68 18200877404067398685
5895379 119 17632294562371627333
59755656 520 18189915282017965980

> <PUBCHEM_SHAPE_MULTIPOLES>
573.33
8.74
3.67
2.77
3.55
0.78
0.33
2.98
-1.82
-2.07
0.32
1.03
-0.64
-4.21

> <PUBCHEM_SHAPE_SELFOVERLAP>
1166.801

> <PUBCHEM_SHAPE_VOLUME>
332

> <RelativeEnergy>
4.02993

> <StereoisomerIndex>
1

> <TautomerIndex>
2

> <POSE_NUMBER>
1

> <LibDockScore>
89.4525

> <HotSpots>
10.81,8.27,-8.46,A,35,23
7.61,3.27,-13.26,A,25,26
16.61,6.47,-11.46,A,30,29

> <-In-Situ Starting Energy>
-1779.17585

> <-In-Situ Final Energy>
-66.5953263

> <In-Situ Gradient>
0.0217006071

$$$$
385552
  SciTegic09142310043D

 54 56  0  0  0  0            999 V2000
   11.9539    3.2664  -11.6919 O   0  0  0  1  0  0
   11.1538    1.1815  -14.3286 O   0  0  0  1  0  0
    9.9707    4.4505  -13.1284 O   0  0  0  1  0  0
   13.5427    4.9120  -11.9458 O   0  0  0  1  0  0
   12.1788    5.5723  -13.9490 O   0  0  0  1  0  0
   10.6471    0.0318  -11.1587 O   0  0  0  1  0  0
    8.9896   -1.3161  -10.3448 O   0  0  0  1  0  0
   12.1223    6.0695   -7.4610 O   0  0  0  1  0  0
   13.4933    4.0598   -6.4902 O   0  0  0  1  0  0
   13.9768    0.4266   -7.2661 O   0  0  0  1  0  0
    9.9283   -1.5741   -5.4238 O   0  0  0  1  0  0
   12.4642   -0.4189   -5.2210 O   0  0  0  1  0  0
   10.7025    2.1605  -13.4162 C   0  0  2  1  0  0
   10.7899    3.6197  -13.9317 C   0  0  2  1  0  0
   11.4760    2.0066  -12.0907 C   0  0  2  1  0  0
   12.2369    4.1665  -13.8785 C   0  0  2  1  0  0
   12.9422    3.7852  -12.5607 C   0  0  2  1  0  0
   10.6210    1.4323  -10.9835 C   0  0  0  1  0  0
   13.6559    4.7252  -10.5762 C   0  0  0  1  0  0
   10.1613   -0.6535  -10.1097 C   0  0  0  1  0  0
   12.9367    5.5752   -9.7501 C   0  0  0  1  0  0
   14.3784    3.6682  -10.0279 C   0  0  0  1  0  0
   10.7998   -0.6662   -8.9177 C   0  0  0  1  0  0
   12.8737    5.3365   -8.3790 C   0  0  0  1  0  0
   14.3290    3.4343   -8.6606 C   0  0  0  1  0  0
   13.5700    4.2641   -7.8487 C   0  0  0  1  0  0
   10.1384   -1.2312   -7.7301 C   0  0  0  1  0  0
   12.1640   -0.1239   -8.7094 C   0  0  0  1  0  0
   12.7255   -0.0633   -7.4842 C   0  0  0  1  0  0
   10.6450   -1.1307   -6.4922 C   0  0  0  1  0  0
   11.9817   -0.5407   -6.3055 C   0  0  0  1  0  0
   11.4733    7.2095   -7.9894 C   0  0  0  1  0  0
   12.0608    1.3283  -14.5716 H   0  0
   10.3903    4.5444  -12.2773 H   0  0
   11.8036    5.8820  -14.7745 H   0  0
    8.7498   -1.2591  -11.2710 H   0  0
   12.9879    4.7872   -6.1434 H   0  0
   14.1270    0.3136   -6.3294 H   0  0
   10.5473   -1.8976   -4.7700 H   0  0
    9.6449    1.9414  -13.2598 H   0  0
   10.3843    3.6976  -14.9368 H   0  0
   12.3344    1.3390  -12.1864 H   0  0
   12.8290    3.7815  -14.7145 H   0  0
   13.7115    3.0325  -12.7434 H   0  0
    9.5976    1.8052  -11.0195 H   0  0
   11.0325    1.7320  -10.0207 H   0  0
   12.3980    6.3812  -10.2163 H   0  0
   14.9502    3.0111  -10.6653 H   0  0
   14.8712    2.6075   -8.2263 H   0  0
    9.1976   -1.7234   -7.8882 H   0  0
   12.7059    0.2205   -9.5697 H   0  0
   10.8602    7.6600   -7.2121 H   0  0
   10.8062    6.9489   -8.8115 H   0  0
   12.2007    7.9503   -8.3265 H   0  0
  1 15  1  0
  1 17  1  0
  2 13  1  0
  3 14  1  0
  4 17  1  0
  4 19  1  0
  5 16  1  0
  6 18  1  0
  6 20  1  0
  7 20  1  0
  8 24  1  0
  8 32  1  0
  9 26  1  0
 10 29  1  0
 11 30  1  0
 12 31  2  0
 13 14  1  0
 13 15  1  0
 14 16  1  0
 15 18  1  0
 16 17  1  0
 19 21  2  0
 19 22  1  0
 20 23  2  0
 21 24  1  0
 22 25  2  0
 23 27  1  0
 23 28  1  0
 24 26  2  0
 25 26  1  0
 27 30  2  0
 28 29  2  0
 29 31  1  0
 30 31  1  0
  2 33  1  0
  3 34  1  0
  5 35  1  0
  7 36  1  0
  9 37  1  0
 10 38  1  0
 11 39  1  0
 13 40  1  0
 14 41  1  0
 15 42  1  0
 16 43  1  0
 17 44  1  0
 18 45  1  0
 18 46  1  0
 21 47  1  0
 22 48  1  0
 25 49  1  0
 27 50  1  0
 28 51  1  0
 32 52  1  0
 32 53  1  0
 32 54  1  0
M  END
> <Name>
385552

> <Binding Energy>
-104.3582

> <Ligand Energy>
38.6162

> <Protein Energy>
-7801.1566

> <Complex Energy>
-7866.8987

> <Complex Entropy>
-31.487

> <Protein Entropy>
-31.4717

> <Ligand Entropy>
-20.427

> <Entropic Energy>
20.4116

> <AbsoluteEnergy>
61.2419

> <ConfNumber>
146

> <Ionization pH>
7.74_PPPP

> <IonizationIndex>
1

> <MOL_NUMBER>
205

> <NumberOfIonizations>
2

> <NumberOfStereoisomers>
1

> <NumberOfTautomers>
2

> <PUBCHEM_ATOM_DEF_STEREO_COUNT>
0

> <PUBCHEM_ATOM_UDEF_STEREO_COUNT>
5

> <PUBCHEM_BOND_DEF_STEREO_COUNT>
0

> <PUBCHEM_BOND_UDEF_STEREO_COUNT>
0

> <PUBCHEM_CACTVS_TAUTO_COUNT>
42

> <PUBCHEM_COMPONENT_COUNT>
1

> <PUBCHEM_COMPOUND_CID>
385552

> <PUBCHEM_CONFORMER_DIVERSEORDER>
1
121
165
222
8
170
118
221
33
201
95
79
219
34
3
26
135
224
119
143
94
177
55
88
99
115
42
77
98
103
39
18
7
110
163
227
168
74
179
213
21
190
71
113
132
225
40
209
193
49
93
204
148
108
140
196
150
171
123
205
2
63
228
53
131
126
57
107
237
41
64
12
175
61
125
17
161
102
158
37
120
214
87
32
100
206
137
151
30
212
127
91
154
51
75
160
200
31
56
97
27
197
104
84
178
223
48
14
134
133
65
69
4
124
195
62
233
105
239
106
235
117
19
82
191
52
155
58
101
112
29
207
198
156
109
44
230
90
47
96
157
232
83
35
16
78
136
72
45
111
182
38
186
50
231
43
67
216
185
139
146
142
23
238
28
217
5
116
22
60
149
152
167
85
164
6
130
141
59
10
162
176
188
25
218
153
208
184
122
73
147
129
89
234
24
220
13
169
174
20
145
210
173
183
128
92
81
68
166
172
114
15
194
144
211
192
236
180
54
226
199
46
229
189
202
36
138
80
215
70
203
11
76
159
66
86
181
9
187

> <PUBCHEM_CONFORMER_ID>
0005E21000000001

> <PUBCHEM_CONFORMER_RMSD>
1.4

> <PUBCHEM_COORDINATE_TYPE>
2
5
10

> <PUBCHEM_EFFECTIVE_ROTOR_COUNT>
8.2

> <PUBCHEM_FEATURE_SELFOVERLAP>
86.351

> <PUBCHEM_HEAVY_ATOM_COUNT>
32

> <PUBCHEM_ISOTOPIC_ATOM_COUNT>
0

> <PUBCHEM_MMFF94_ENERGY>
109.0101

> <PUBCHEM_MMFF94_PARTIAL_CHARGES>
44
1 -0.56
10 -0.53
11 -0.53
12 -0.53
13 0.28
14 0.28
15 0.28
16 0.28
17 0.56
18 0.28
19 0.08
2 -0.68
20 0.63
21 -0.15
22 -0.15
23 0.09
24 0.08
25 -0.15
26 0.08
27 -0.15
28 -0.15
29 0.08
3 -0.68
30 0.08
31 0.08
32 0.28
4 -0.36
40 0.4
41 0.4
42 0.4
43 0.15
44 0.15
45 0.15
46 0.15
47 0.15
48 0.45
5 -0.68
52 0.45
53 0.45
54 0.45
6 -0.43
7 -0.57
8 -0.36
9 -0.53

> <PUBCHEM_PHARMACOPHORE_FEATURES>
17
1 1 acceptor
1 10 donor
1 11 donor
1 12 donor
1 2 acceptor
1 2 donor
1 3 acceptor
1 3 donor
1 4 acceptor
1 5 acceptor
1 5 donor
1 7 acceptor
1 8 acceptor
1 9 donor
6 1 13 14 15 16 17 rings
6 19 21 22 24 25 26 rings
6 23 27 28 29 30 31 rings

> <PUBCHEM_SHAPE_FINGERPRINT>
10670039 82 18191879933514989790
1100329 8 18410582798920169285
11513181 2 17771338961755284030
12156800 1 16880998232842589548
12166972 35 17894635846162396534
12539773 59 15534418349323952220
12788726 201 18339375058767248910
13122387 1 16895394988977606692
13402501 40 18269829977590032912
14394314 77 18337679624121512965
14790565 3 17476080129660056313
14931854 50 18336276720551395916
15439362 3 18119527884771546197
15927050 60 17763468708926127327
17093844 170 17906453577779956180
18336668 15 18186524284603994732
20642791 35 18341042004484376299
20764821 26 17542515271766221238
20775438 99 17693913586495714007
20775530 9 18411130325192694300
23559900 14 18336819905450351117
238918 7 17335337624724280768
3298306 158 17693375950978216525
3504750 166 18122040032718734906
392239 28 18341613672984025432
463206 1 18335992994864043713
469060 322 18264498273681337264
5047190 69 18341038650452216906
5265222 85 17257654946083822213

> <PUBCHEM_SHAPE_MULTIPOLES>
588.11
10.76
5.84
1.42
0.36
3.25
-0.42
-9.23
1.23
-1.13
-1.04
-0.8
1.35
-0.54

> <PUBCHEM_SHAPE_SELFOVERLAP>
1264.719

> <PUBCHEM_SHAPE_VOLUME>
321.5

> <RelativeEnergy>
14.9627

> <StereoisomerIndex>
1

> <TautomerIndex>
2

> <POSE_NUMBER>
1

> <LibDockScore>
124.3006

> <HotSpots>
8.61,-2.33,-5.66,P,54,11
9.21,3.67,-12.86,A,26,14
10.81,8.27,-8.46,A,35,32

> <-In-Situ Starting Energy>
-2636.6477

> <-In-Situ Final Energy>
20.7811882

> <In-Situ Gradient>
0.000892754974

$$$$
440545
  SciTegic09142310043D

 24 24  0  0  0  0            999 V2000
    5.5392    0.6864    0.8909 O   0  0  0  1  0  0
    5.5532    3.0197   -0.9128 O   0  0  0  1  0  0
    7.4601    0.0088   -0.1464 O   0  0  0  1  0  0
    8.6946    2.2507    0.8784 O   0  0  0  1  0  0
    7.5282    2.7761    3.0759 O   0  0  0  1  0  0
    4.0900    0.9457   -1.3321 O   0  0  0  1  0  0
    6.7041    2.2258   -0.5985 C   0  0  2  1  0  0
    6.2789    0.7663   -0.3086 C   0  0  2  1  0  0
    7.4089    2.7995    0.6519 C   0  0  1  1  0  0
    6.6779    2.5000    1.9772 C   0  0  1  1  0  0
    6.2017    1.0506    2.0797 C   0  0  0  1  0  0
    5.3149    0.2256   -1.3801 C   0  0  0  1  0  0
    5.6333    3.4670   -1.7669 H   0  0
    7.2029   -0.8704    0.1111 H   0  0
    8.6902    1.3319    0.5971 H   0  0
    8.4296    2.6868    2.7557 H   0  0
    4.3058    1.8782   -1.4291 H   0  0
    7.4231    2.2103   -1.4306 H   0  0
    7.5284    3.8746    0.5259 H   0  0
    5.8105    3.1560    2.0556 H   0  0
    5.5079    0.9439    2.9136 H   0  0
    7.0257    0.3668    2.2835 H   0  0
    5.7461    0.2550   -2.3860 H   0  0
    5.0705   -0.8114   -1.1640 H   0  0
  1  8  1  0
  1 11  1  0
  2  7  1  0
  3  8  1  0
  4  9  1  0
  5 10  1  0
  6 12  1  0
  7  8  1  0
  7  9  1  0
  8 12  1  0
  9 10  1  0
 10 11  1  0
  2 13  1  0
  3 14  1  0
  4 15  1  0
  5 16  1  0
  6 17  1  0
  7 18  1  0
  9 19  1  0
 10 20  1  0
 11 21  1  0
 11 22  1  0
 12 23  1  0
 12 24  1  0
M  END
> <Name>
440545

> <Binding Energy>
-64.5528

> <Ligand Energy>
33.6118

> <Protein Energy>
-7801.1566

> <Complex Energy>
-7832.0976

> <Complex Entropy>
-31.4764

> <Protein Entropy>
-31.4717

> <Ligand Entropy>
-17.678

> <Entropic Energy>
17.6733

> <AbsoluteEnergy>
18.3084

> <ConfNumber>
3

> <IonizationIndex>
1

> <MOL_NUMBER>
214

> <NumberOfIonizations>
1

> <NumberOfStereoisomers>
1

> <NumberOfTautomers>
1

> <PUBCHEM_ATOM_DEF_STEREO_COUNT>
4

> <PUBCHEM_ATOM_UDEF_STEREO_COUNT>
0

> <PUBCHEM_BOND_DEF_STEREO_COUNT>
0

> <PUBCHEM_BOND_UDEF_STEREO_COUNT>
0

> <PUBCHEM_CACTVS_TAUTO_COUNT>
1

> <PUBCHEM_COMPONENT_COUNT>
1

> <PUBCHEM_COMPOUND_CID>
440545

> <PUBCHEM_CONFORMER_DIVERSEORDER>
2
3
4
1

> <PUBCHEM_CONFORMER_ID>
0006B8E100000002

> <PUBCHEM_CONFORMER_RMSD>
0.6

> <PUBCHEM_COORDINATE_TYPE>
2
5
10

> <PUBCHEM_EFFECTIVE_ROTOR_COUNT>
2.2

> <PUBCHEM_FEATURE_SELFOVERLAP>
60.967

> <PUBCHEM_HEAVY_ATOM_COUNT>
12

> <PUBCHEM_ISOTOPIC_ATOM_COUNT>
0

> <PUBCHEM_MMFF94_ENERGY>
32.8883

> <PUBCHEM_MMFF94_PARTIAL_CHARGES>
17
1 -0.56
10 0.28
11 0.28
12 0.28
2 -0.68
20 0.4
21 0.4
22 0.4
23 0.4
24 0.4
3 -0.68
4 -0.68
5 -0.68
6 -0.68
7 0.28
8 0.56
9 0.28

> <PUBCHEM_PHARMACOPHORE_FEATURES>
12
1 1 acceptor
1 2 acceptor
1 2 donor
1 3 acceptor
1 3 donor
1 4 acceptor
1 4 donor
1 5 acceptor
1 5 donor
1 6 acceptor
1 6 donor
6 1 7 8 9 10 11 rings

> <PUBCHEM_SHAPE_FINGERPRINT>
12423570 1 10850302345797483789
13024252 1 13262971628786395194
137420 1 12854697685220498571
14128692 85 18259984868363892090
16945 1 17822011999314581987
18185500 45 18338228267601297970
21040471 1 18116155664953897536
23235685 24 18333446534708665378
23552423 10 18115030684244130219
241688 4 17539406531635532978
29004967 10 17749385923452795784
369184 2 17774426222902042250
4369600 1 18270698557015245660
5084963 1 17749103396161572755
528886 8 17677880249908188213
68250623 7 17767987336591240574

> <PUBCHEM_SHAPE_MULTIPOLES>
211.74
3.47
1.46
1.12
0.87
0.11
0.32
-0.95
-0.05
-0.18
-0.34
-0.1
0.26
-0.33

> <PUBCHEM_SHAPE_SELFOVERLAP>
425.797

> <PUBCHEM_SHAPE_VOLUME>
122.6

> <RelativeEnergy>
3.49675

> <StereoisomerIndex>
1

> <TautomerIndex>
1

> <POSE_NUMBER>
1

> <LibDockScore>
70.8647

> <HotSpots>
7.81,2.67,0.94,A,73,9
6.01,1.67,2.54,A,83,11
6.61,-0.93,-0.06,A,65,12

> <-In-Situ Starting Energy>
-1449.88562

> <-In-Situ Final Energy>
26.4141727

> <In-Situ Gradient>
0.0007622436353

$$$$
442195
  SciTegic09142310043D

 74 78  0  0  0  0            999 V2000
   10.2772    3.1268  -12.5501 O   0  0  0  1  0  0
   11.9212    5.1803  -13.8585 O   0  0  0  1  0  0
   15.5206    1.0088  -10.3025 O   0  0  0  1  0  0
   13.4873    0.1444  -11.7196 O   0  0  0  1  0  0
   12.9573    5.2763   -7.8313 N   0  3  1  1  0  0
   12.0982   -0.9983   -5.6695 N   0  3  0  1  0  0
   12.9455    2.7559   -6.3169 C   0  0  2  1  0  0
   12.7052    4.0856   -5.5593 C   0  0  2  1  0  0
   13.0359    3.9568   -8.4631 C   0  0  1  1  0  0
   12.2176    2.9584   -7.6661 C   0  0  0  1  0  0
   13.2498    5.2573   -6.3897 C   0  0  0  1  0  0
   12.4742    1.4891   -5.5748 C   0  0  0  1  0  0
   13.8179    6.2504   -8.5285 C   0  0  0  1  0  0
   13.3428    4.1993   -4.1629 C   0  0  0  1  0  0
   12.6906    4.0946   -9.9221 C   0  0  0  1  0  0
   12.9658    0.1011   -6.0959 C   0  0  2  1  0  0
   14.4816    5.7734   -9.8360 C   0  0  0  1  0  0
   13.4652    5.0033  -10.6148 C   0  0  0  1  0  0
   13.1570    0.0022   -7.5890 C   0  0  0  1  0  0
   12.6952    5.3183   -3.3361 C   0  0  0  1  0  0
   11.6459    3.4445  -10.5706 C   0  0  0  1  0  0
   10.7735   -0.9313   -6.2771 C   0  0  0  1  0  0
   13.2204    5.2616  -11.9444 C   0  0  0  1  0  0
   12.1334   -0.5204   -8.3839 C   0  0  0  1  0  0
   10.9357   -1.1876   -7.7632 C   0  0  0  1  0  0
   11.3630    3.7209  -11.9106 C   0  0  0  1  0  0
   12.1451    4.6720  -12.5862 C   0  0  0  1  0  0
   14.3268    0.4680   -8.1915 C   0  0  0  1  0  0
   12.2480   -0.4694   -9.7660 C   0  0  0  1  0  0
   14.4381    0.5093   -9.5812 C   0  0  0  1  0  0
   13.3833    0.0577  -10.3527 C   0  0  0  1  0  0
   10.0088    1.7868  -12.1798 C   0  0  0  1  0  0
   11.3811    4.2877  -14.8051 C   0  0  0  1  0  0
   16.6181    1.4662   -9.5352 C   0  0  0  1  0  0
   14.3691    0.4533  -11.9103 H   0  0
   12.0024    5.5930   -7.9491 H   0  0
   12.0451   -1.0972   -4.6643 H   0  0
   12.5379   -1.8466   -6.0216 H   0  0
   14.0211    2.6509   -6.4657 H   0  0
   11.6256    4.1972   -5.4480 H   0  0
   14.0787    3.6329   -8.4266 H   0  0
   12.0931    2.0649   -8.2512 H   0  0
   11.2008    3.3203   -7.5151 H   0  0
   12.9146    6.2078   -5.9801 H   0  0
   14.3266    5.2279   -6.2742 H   0  0
   11.3945    1.5658   -5.4987 H   0  0
   12.8330    1.5256   -4.5524 H   0  0
   14.6003    6.5923   -7.8530 H   0  0
   13.1706    7.1036   -8.7360 H   0  0
   14.4143    4.3712   -4.2281 H   0  0
   13.2797    3.2730   -3.6194 H   0  0
   13.9425   -0.0943   -5.6495 H   0  0
   14.8666    6.6059  -10.4222 H   0  0
   15.3332    5.1246   -9.6273 H   0  0
   11.6884    5.5552   -3.6791 H   0  0
   13.2901    6.2274   -3.3848 H   0  0
   12.6028    5.0392   -2.2909 H   0  0
   11.0195    2.7597  -10.0235 H   0  0
   10.1477   -1.6988   -5.8222 H   0  0
   10.2908    0.0162   -6.0715 H   0  0
   13.8649    5.9508  -12.4698 H   0  0
   10.0252   -0.9872   -8.3271 H   0  0
   11.1482   -2.2414   -7.8142 H   0  0
   15.1293    0.8301   -7.5670 H   0  0
   11.4549   -0.8360  -10.3979 H   0  0
    9.5581    1.7268  -11.1898 H   0  0
   10.9153    1.1792  -12.2129 H   0  0
    9.2942    1.3588  -12.8812 H   0  0
   10.3118    4.1567  -14.6541 H   0  0
   11.8881    3.3229  -14.7605 H   0  0
   11.5168    4.7005  -15.8050 H   0  0
   17.0346    0.6618   -8.9266 H   0  0
   16.3312    2.3035   -8.8976 H   0  0
   17.4059    1.8163  -10.2030 H   0  0
  1 26  1  0
  1 32  1  0
  2 27  1  0
  2 33  1  0
  3 30  1  0
  3 34  1  0
  4 31  1  0
  5  9  1  0
  5 11  1  0
  5 13  1  0
  6 16  1  0
  6 22  1  0
  7  8  1  0
  7 10  1  0
  7 12  1  0
  8 11  1  0
  8 14  1  0
  9 10  1  0
  9 15  1  0
 12 16  1  0
 13 17  1  0
 14 20  1  0
 15 18  2  0
 15 21  1  0
 16 19  1  0
 17 18  1  0
 18 23  1  0
 19 24  2  0
 19 28  1  0
 21 26  2  0
 22 25  1  0
 23 27  2  0
 24 25  1  0
 24 29  1  0
 26 27  1  0
 28 30  2  0
 29 31  2  0
 30 31  1  0
  4 35  1  0
  5 36  1  0
  6 37  1  0
  6 38  1  0
  7 39  1  0
  8 40  1  0
  9 41  1  0
 10 42  1  0
 10 43  1  0
 11 44  1  0
 11 45  1  0
 12 46  1  0
 12 47  1  0
 13 48  1  0
 13 49  1  0
 14 50  1  0
 14 51  1  0
 16 52  1  0
 17 53  1  0
 17 54  1  0
 20 55  1  0
 20 56  1  0
 20 57  1  0
 21 58  1  0
 22 59  1  0
 22 60  1  0
 23 61  1  0
 25 62  1  0
 25 63  1  0
 28 64  1  0
 29 65  1  0
 32 66  1  0
 32 67  1  0
 32 68  1  0
 33 69  1  0
 33 70  1  0
 33 71  1  0
 34 72  1  0
 34 73  1  0
 34 74  1  0
M  CHG  2   5   1   6   1
M  END
> <Name>
442195

> <Binding Energy>
-89.6848

> <Ligand Energy>
139.9187

> <Protein Energy>
-7801.1566

> <Complex Energy>
-7750.9227

> <Complex Entropy>
-31.4876

> <Protein Entropy>
-31.4717

> <Ligand Entropy>
-20.4515

> <Entropic Energy>
20.4357

> <AbsoluteEnergy>
67.7882

> <ConfNumber>
29

> <Ionization pH>
8.18_PPP

> <IonizationIndex>
1

> <MOL_NUMBER>
221

> <NumberOfIonizations>
2

> <NumberOfStereoisomers>
1

> <NumberOfTautomers>
1

> <PUBCHEM_ATOM_DEF_STEREO_COUNT>
4

> <PUBCHEM_ATOM_UDEF_STEREO_COUNT>
0

> <PUBCHEM_BOND_DEF_STEREO_COUNT>
0

> <PUBCHEM_BOND_UDEF_STEREO_COUNT>
0

> <PUBCHEM_CACTVS_TAUTO_COUNT>
9

> <PUBCHEM_COMPONENT_COUNT>
1

> <PUBCHEM_COMPOUND_CID>
442195

> <PUBCHEM_CONFORMER_DIVERSEORDER>
1
3
2

> <PUBCHEM_CONFORMER_ID>
0006BF5300000001

> <PUBCHEM_CONFORMER_RMSD>
1

> <PUBCHEM_COORDINATE_TYPE>
2
5
10

> <PUBCHEM_EFFECTIVE_ROTOR_COUNT>
8

> <PUBCHEM_FEATURE_SELFOVERLAP>
66.04

> <PUBCHEM_HEAVY_ATOM_COUNT>
34

> <PUBCHEM_ISOTOPIC_ATOM_COUNT>
0

> <PUBCHEM_MMFF94_ENERGY>
117.5322

> <PUBCHEM_MMFF94_PARTIAL_CHARGES>
34
1 -0.36
11 0.27
13 0.27
15 -0.14
16 0.41
17 0.14
18 -0.14
19 -0.14
2 -0.36
21 -0.15
22 0.27
23 -0.15
24 -0.14
25 0.14
26 0.08
27 0.08
28 -0.15
29 -0.15
3 -0.36
30 0.08
31 0.08
32 0.28
33 0.28
34 0.28
4 -0.53
5 -0.81
51 0.36
55 0.15
58 0.15
6 -0.9
61 0.15
62 0.15
69 0.45
9 0.41

> <PUBCHEM_PHARMACOPHORE_FEATURES>
13
1 1 acceptor
1 2 acceptor
1 20 hydrophobe
1 3 acceptor
1 4 donor
1 5 cation
1 6 cation
1 6 donor
6 15 18 21 23 26 27 rings
6 19 24 28 29 30 31 rings
6 5 7 8 9 10 11 rings
6 5 9 13 15 17 18 rings
6 6 16 19 22 24 25 rings

> <PUBCHEM_SHAPE_FINGERPRINT>
10319926 262 14476695108518044467
10429389 16 17895462649295257309
10622 236 18272650121398037707
11135926 11 18121235413523727472
11475781 23 17386268965790428421
117089 54 18056774126495583350
11991303 11 17829334588106323853
12107183 9 18198639756740634233
12166972 35 17988641969292962009
12236239 1 17559969877656273769
12342043 65 17606701368273318947
13533116 47 18272374225499299401
1361 2 18339359789647133739
1361 87 18114198435757727546
13690498 29 18194703487795728332
13782708 43 17605849246672511555
13911987 19 17900842735926783036
14931854 50 17895482419172755666
15320294 125 16917071101142983423
15361156 5 18192736478478469924
15721738 15 17823122454604126435
16628084 112 17826795828990187705
17349148 13 17417258761591766469
17492 89 18339930290959728076
19301676 85 17330277169333142007
19304144 158 16953668473974731652
19315092 285 17775564264787166824
20775530 9 18339370647825176576
21033650 10 15936413342523105937
21458453 9 12319166399722512845
21703447 108 18411692193532159064
23536364 44 18187356602623036757
23559900 14 17749675215375733473
23569914 152 17758085148263048175
24771750 20 17249786806621065133
25269216 80 14996583836105332923
314194 84 18341056318882315216
34797466 226 17096091427623601413
3729539 64 18334289881961273995
3882209 13 17465071887761858506
4015057 19 18336548338957904905
437795 70 18263627512513263453
44880168 125 17626960672683884354
46194498 28 17315082296694223469
4756261 7 10661523982480188485
50009960 94 18044366125360610170
504843 32 16898486313101540056
513202 73 18270690757206657583
5309563 4 18410863139872753994
613672 6 18335134323712046808
70251023 43 18412262835386619112

> <PUBCHEM_SHAPE_MULTIPOLES>
666.26
16.71
5.52
2.2
6.62
5.91
0.26
-17.91
8.98
-6.02
-0.33
4.08
-1.66
0.51

> <PUBCHEM_SHAPE_SELFOVERLAP>
1427.052

> <PUBCHEM_SHAPE_VOLUME>
368.2

> <RelativeEnergy>
11.2543

> <StereoisomerIndex>
1

> <TautomerIndex>
1

> <POSE_NUMBER>
2

> <LibDockScore>
128.6526

> <HotSpots>
13.41,5.07,-3.25,A,44,20
9.41,-1.33,-5.66,A,37,25
11.21,4.87,-14.65,A,18,33

> <-In-Situ Starting Energy>
-2305.51003

> <-In-Situ Final Energy>
-15.545237

> <In-Situ Gradient>
0.001255249718

$$$$
445580
  SciTegic09142310043D

 55 54  0  0  0  0            999 V2000
    5.9434   11.0984   -0.6235 O   0  5  0  1  0  0
    6.8175   12.0260   -2.3500 O   0  0  0  1  0  0
    7.9489    9.5489   -3.1782 C   0  0  0  1  0  0
    9.1241    7.2618   -4.4444 C   0  0  0  1  0  0
   12.0457    5.5494   -5.0610 C   0  0  0  1  0  0
   12.8210    4.9548   -8.0764 C   0  0  0  1  0  0
    6.6315    9.6439   -2.4040 C   0  0  0  1  0  0
    7.8282    9.2330   -4.6535 C   0  0  0  1  0  0
   13.6594    5.4036  -11.1772 C   0  0  0  1  0  0
    8.5066    8.2549   -5.3057 C   0  0  0  1  0  0
    9.4749    5.8457   -4.7908 C   0  0  0  1  0  0
   10.6201    5.1349   -4.8509 C   0  0  0  1  0  0
   12.8769    4.4065   -5.5821 C   0  0  0  1  0  0
   11.5368    3.4003  -12.4434 C   0  0  0  1  0  0
   13.2489    4.1846   -6.8555 C   0  0  0  1  0  0
   13.9748    5.7391   -8.6404 C   0  0  0  1  0  0
   14.3826    5.8171   -9.9211 C   0  0  0  1  0  0
   12.1557    5.4713  -11.0811 C   0  0  0  1  0  0
   11.2565    4.6278  -11.6189 C   0  0  0  1  0  0
   10.6778    2.2414  -12.0099 C   0  0  0  1  0  0
    8.8445    2.4333  -13.7725 C   0  0  0  1  0  0
    9.5531    1.7994  -12.6032 C   0  0  0  1  0  0
    6.4638   11.0200   -1.7350 C   0  0  0  1  0  0
    7.4077    2.8188  -13.4205 C   0  0  0  1  0  0
    8.5593   10.4279   -3.0331 H   0  0
    8.5342    8.8001   -2.6862 H   0  0
    8.2097    7.1213   -3.8650 H   0  0
    9.8807    7.7140   -3.8138 H   0  0
   12.4771    5.8852   -4.1178 H   0  0
   12.0710    6.3713   -5.7719 H   0  0
   12.0075    5.6369   -7.8314 H   0  0
   12.4341    4.2540   -8.8152 H   0  0
    5.8058    9.4838   -3.0881 H   0  0
    6.5692    8.8647   -1.6431 H   0  0
    7.0426    9.7975   -5.1066 H   0  0
   14.0061    4.4230  -11.4978 H   0  0
   13.9609    6.1005  -11.9588 H   0  0
    8.5886    8.0007   -6.3335 H   0  0
    8.5688    5.2717   -4.7990 H   0  0
   10.5109    4.0648   -4.8662 H   0  0
   13.2807    3.7714   -4.8141 H   0  0
   12.5860    3.1150  -12.3928 H   0  0
   11.3457    3.6385  -13.4880 H   0  0
   13.8751    3.3372   -7.0676 H   0  0
   14.5828    6.2077   -7.8890 H   0  0
   15.2968    6.3477  -10.1206 H   0  0
   11.7913    6.2347  -10.4187 H   0  0
   10.2167    4.7711  -11.3831 H   0  0
   11.0822    1.6758  -11.1899 H   0  0
    8.8505    1.7496  -14.6207 H   0  0
    9.3716    3.3269  -14.0980 H   0  0
    9.0778    0.9179  -12.2110 H   0  0
    7.3943    3.5300  -12.5998 H   0  0
    6.8215    1.9520  -13.1214 H   0  0
    6.9074    3.2909  -14.2624 H   0  0
  1 23  1  0
  2 23  2  0
  3  7  1  0
  3  8  1  0
  4 10  1  0
  4 11  1  0
  5 12  1  0
  5 13  1  0
  6 15  1  0
  6 16  1  0
  7 23  1  0
  8 10  2  0
  9 17  1  0
  9 18  1  0
 11 12  2  0
 13 15  2  0
 14 19  1  0
 14 20  1  0
 16 17  2  0
 18 19  2  0
 20 22  2  0
 21 22  1  0
 21 24  1  0
  3 25  1  0
  3 26  1  0
  4 27  1  0
  4 28  1  0
  5 29  1  0
  5 30  1  0
  6 31  1  0
  6 32  1  0
  7 33  1  0
  7 34  1  0
  8 35  1  0
  9 36  1  0
  9 37  1  0
 10 38  1  0
 11 39  1  0
 12 40  1  0
 13 41  1  0
 14 42  1  0
 14 43  1  0
 15 44  1  0
 16 45  1  0
 17 46  1  0
 18 47  1  0
 19 48  1  0
 20 49  1  0
 21 50  1  0
 21 51  1  0
 22 52  1  0
 24 53  1  0
 24 54  1  0
 24 55  1  0
M  CHG  1   1  -1
M  END
> <Name>
445580

> <Binding Energy>
-66.5208

> <Ligand Energy>
119.5616

> <Protein Energy>
-7801.1566

> <Complex Energy>
-7748.1159

> <Complex Entropy>
-31.4823

> <Protein Entropy>
-31.4717

> <Ligand Entropy>
-20.3086

> <Entropic Energy>
20.298

> <AbsoluteEnergy>
53.3293

> <ConfNumber>
136

> <Ionization pH>
7.5

> <IonizationIndex>
1

> <MOL_NUMBER>
233

> <NumberOfIonizations>
1

> <NumberOfStereoisomers>
1

> <NumberOfTautomers>
1

> <PUBCHEM_ATOM_DEF_STEREO_COUNT>
0

> <PUBCHEM_ATOM_UDEF_STEREO_COUNT>
0

> <PUBCHEM_BOND_DEF_STEREO_COUNT>
6

> <PUBCHEM_BOND_UDEF_STEREO_COUNT>
0

> <PUBCHEM_CACTVS_TAUTO_COUNT>
1

> <PUBCHEM_COMPONENT_COUNT>
1

> <PUBCHEM_COMPOUND_CID>
445580

> <PUBCHEM_CONFORMER_DIVERSEORDER>
5
109
98
141
212
8
148
118
80
171
194
71
206
169
33
184
35
207
107
166
180
6
133
205
95
25
134
11
156
86
29
190
152
93
178
69
41
161
9
143
48
126
155
120
203
154
145
2
209
12
73
151
3
89
121
113
105
102
186
210
14
201
56
58
211
32
38
63
193
79
20
198
165
28
123
204
1
176
202
97
36
137
157
187
177
100
191
94
130
54
70
189
122
22
146
167
81
144
37
192
17
170
117
34
142
149
159
68
131
110
39
108
199
13
85
163
168
78
179
136
99
42
16
195
66
147
77
174
23
114
129
138
90
200
64
21
4
83
49
182
30
19
59
27
115
46
150
196
55
181
84
135
101
153
26
116
160
74
111
47
40
106
76
91
197
18
87
128
125
82
62
112
185
172
51
104
61
164
175
43
92
24
119
158
45
188
183
88
162
127
44
57
65
124
173
208
72
53
96
15
50
103
52
10
75
60
140
132
67
7
31
139

> <PUBCHEM_CONFORMER_ID>
0006CC8C00000005

> <PUBCHEM_CONFORMER_RMSD>
1.4

> <PUBCHEM_COORDINATE_TYPE>
2
5
10

> <PUBCHEM_EFFECTIVE_ROTOR_COUNT>
14

> <PUBCHEM_FEATURE_SELFOVERLAP>
20.355

> <PUBCHEM_HEAVY_ATOM_COUNT>
24

> <PUBCHEM_ISOTOPIC_ATOM_COUNT>
0

> <PUBCHEM_MMFF94_ENERGY>
15.9924

> <PUBCHEM_MMFF94_PARTIAL_CHARGES>
36
1 -0.65
10 -0.29
11 -0.29
12 -0.29
13 -0.29
14 0.28
15 -0.29
16 -0.29
17 -0.29
18 -0.29
19 -0.29
2 -0.57
20 -0.29
21 0.14
22 -0.29
23 0.66
3 0.14
35 0.15
38 0.15
39 0.15
4 0.28
40 0.15
41 0.15
44 0.15
45 0.15
46 0.15
47 0.15
48 0.15
49 0.15
5 0.28
52 0.15
56 0.5
6 0.28
7 0.06
8 -0.29
9 0.28

> <PUBCHEM_PHARMACOPHORE_FEATURES>
4
1 1 acceptor
1 2 acceptor
1 24 hydrophobe
3 1 2 23 anion

> <PUBCHEM_SHAPE_FINGERPRINT>
12156800 1 14059822069363593729
13773456 73 10591183842900669693
14251757 17 18188208822454229948
14932701 244 17775567516583551432
15664445 248 18125687211329475572
18981168 100 14926498559346925120
20397935 3 17461125860898610163
20429585 67 18412268358344932499
23419403 2 17174940769357966347
35225 105 17341252563389558117
469060 322 17823158802832431892
4742675 86 17970376791822041406

> <PUBCHEM_SHAPE_MULTIPOLES>
482.17
7.62
3.78
3.63
1.34
0.56
1.09
-4.59
-3.99
-1.08
0.83
-0.32
1.2
0.71

> <PUBCHEM_SHAPE_SELFOVERLAP>
918.335

> <PUBCHEM_SHAPE_VOLUME>
292.2

> <RelativeEnergy>
11.839

> <StereoisomerIndex>
1

> <TautomerIndex>
1

> <POSE_NUMBER>
1

> <LibDockScore>
137.6799

> <HotSpots>
7.21,9.27,-3.25,A,45,7
13.41,5.07,-3.25,A,44,13
9.21,3.67,-12.86,A,26,24

> <-In-Situ Starting Energy>
-15101.5966

> <-In-Situ Final Energy>
-76.6272284

> <In-Situ Gradient>
0.0009225718946

$$$$
513197
  SciTegic09142310043D

 48 50  0  0  0  0            999 V2000
   12.5540    2.8947   -9.4616 O   0  0  0  1  0  0
    9.7130    3.8339  -13.3319 O   0  0  0  1  0  0
   11.6503    5.6460  -12.1059 O   0  0  0  1  0  0
   10.2275   -0.6460  -11.6374 O   0  0  0  1  0  0
   12.2386    4.8633   -3.5591 O   0  0  0  1  0  0
   12.7494    4.2736   -9.1758 C   0  0  1  1  0  0
   11.7058    5.2162   -9.7833 C   0  0  0  1  0  0
   11.7340    2.5144  -10.5251 C   0  0  0  1  0  0
   11.1938    3.4272  -11.4309 C   0  0  0  1  0  0
   11.5050    4.8435  -11.2295 C   0  0  0  1  0  0
   11.4494    1.1513  -10.6361 C   0  0  0  1  0  0
   12.6758    4.4042   -7.6815 C   0  0  0  1  0  0
   10.3237    2.9777  -12.4246 C   0  0  0  1  0  0
   12.1209    0.1497   -9.7289 C   0  0  0  1  0  0
   10.5352    0.7116  -11.5890 C   0  0  0  1  0  0
    9.9737    1.6324  -12.4727 C   0  0  0  1  0  0
   11.7143    3.6843   -6.9857 C   0  0  0  1  0  0
   13.5089    5.2619   -6.9783 C   0  0  0  1  0  0
   11.2652   -0.2673   -8.5616 C   0  0  0  1  0  0
   11.5480    3.8547   -5.6217 C   0  0  0  1  0  0
   13.4037    5.3610   -5.5965 C   0  0  0  1  0  0
   11.5620   -0.1799   -7.2500 C   0  0  0  1  0  0
   12.4006    4.6902   -4.9190 C   0  0  0  1  0  0
   10.6132    4.3650  -14.2906 C   0  0  0  1  0  0
   12.8979    0.2304   -6.6774 C   0  0  0  1  0  0
   10.6493   -0.7750   -6.2083 C   0  0  0  1  0  0
    9.3043   -0.8109  -11.8386 H   0  0
   13.0860    4.9059   -3.1359 H   0  0
   13.7454    4.5552   -9.5223 H   0  0
   10.7476    5.1213   -9.2808 H   0  0
   12.0186    6.2579   -9.7119 H   0  0
   12.3634   -0.7370  -10.3150 H   0  0
   13.0777    0.5456   -9.3968 H   0  0
    9.2652    1.3387  -13.2274 H   0  0
   11.0712    3.0008   -7.5196 H   0  0
   14.2451    5.8493   -7.5076 H   0  0
   10.3111   -0.6660   -8.8532 H   0  0
   10.7582    3.3215   -5.1193 H   0  0
   14.0890    5.9828   -5.0485 H   0  0
   10.3882    3.9650  -15.2712 H   0  0
   11.6617    4.1530  -14.0721 H   0  0
   10.4820    5.4421  -14.3617 H   0  0
   12.8402    1.2277   -6.2456 H   0  0
   13.6837    0.2279   -7.4293 H   0  0
   13.2147   -0.4538   -5.8924 H   0  0
    9.8994   -1.4211   -6.6631 H   0  0
   10.1340    0.0095   -5.6597 H   0  0
   11.2115   -1.3741   -5.4937 H   0  0
  1  6  1  0
  1  8  1  0
  2 13  1  0
  2 24  1  0
  3 10  2  0
  4 15  1  0
  5 23  1  0
  6  7  1  0
  6 12  1  0
  7 10  1  0
  8  9  2  0
  8 11  1  0
  9 10  1  0
  9 13  1  0
 11 14  1  0
 11 15  2  0
 12 17  2  0
 12 18  1  0
 13 16  2  0
 14 19  1  0
 15 16  1  0
 17 20  1  0
 18 21  2  0
 19 22  2  0
 20 23  2  0
 21 23  1  0
 22 25  1  0
 22 26  1  0
  4 27  1  0
  5 28  1  0
  6 29  1  0
  7 30  1  0
  7 31  1  0
 14 32  1  0
 14 33  1  0
 16 34  1  0
 17 35  1  0
 18 36  1  0
 19 37  1  0
 20 38  1  0
 21 39  1  0
 24 40  1  0
 24 41  1  0
 24 42  1  0
 25 43  1  0
 25 44  1  0
 25 45  1  0
 26 46  1  0
 26 47  1  0
 26 48  1  0
M  END
> <Name>
513197

> <Binding Energy>
-87.5904

> <Ligand Energy>
36.639

> <Protein Energy>
-7801.1566

> <Complex Energy>
-7852.1081

> <Complex Entropy>
-31.4834

> <Protein Entropy>
-31.4717

> <Ligand Entropy>
-19.8307

> <Entropic Energy>
19.819

> <AbsoluteEnergy>
42.166

> <ConfNumber>
1

> <Ionization pH>
7.5

> <IonizationIndex>
1

> <MOL_NUMBER>
237

> <NumberOfIonizations>
1

> <NumberOfStereoisomers>
1

> <NumberOfTautomers>
2

> <PUBCHEM_ATOM_DEF_STEREO_COUNT>
0

> <PUBCHEM_ATOM_UDEF_STEREO_COUNT>
1

> <PUBCHEM_BOND_DEF_STEREO_COUNT>
0

> <PUBCHEM_BOND_UDEF_STEREO_COUNT>
0

> <PUBCHEM_CACTVS_TAUTO_COUNT>
18

> <PUBCHEM_COMPONENT_COUNT>
1

> <PUBCHEM_COMPOUND_CID>
513197

> <PUBCHEM_CONFORMER_DIVERSEORDER>
1
6
34
30
35
33
18
14
29
28
16
25
13
23
7
3
10
27
20
21
24
4
5
9
32
22
17
2
31
12
8
11
26
15
19

> <PUBCHEM_CONFORMER_ID>
0007D4AD00000001

> <PUBCHEM_CONFORMER_RMSD>
0.8

> <PUBCHEM_COORDINATE_TYPE>
2
5
10

> <PUBCHEM_EFFECTIVE_ROTOR_COUNT>
4.6

> <PUBCHEM_FEATURE_SELFOVERLAP>
45.712

> <PUBCHEM_HEAVY_ATOM_COUNT>
26

> <PUBCHEM_ISOTOPIC_ATOM_COUNT>
0

> <PUBCHEM_MMFF94_ENERGY>
79.889

> <PUBCHEM_MMFF94_PARTIAL_CHARGES>
34
1 -0.36
10 0.42
11 -0.14
12 -0.14
13 0.08
14 0.28
15 0.08
16 -0.15
17 -0.15
18 -0.15
19 -0.29
2 -0.36
20 -0.15
21 -0.15
22 -0.28
23 0.08
24 0.28
25 0.14
26 0.14
3 -0.57
32 0.15
33 0.15
34 0.15
35 0.15
36 0.15
37 0.15
38 0.45
4 -0.53
48 0.45
5 -0.53
6 0.42
7 0.06
8 0.08
9 0.09

> <PUBCHEM_PHARMACOPHORE_FEATURES>
9
1 1 acceptor
1 2 acceptor
1 3 acceptor
1 4 donor
1 5 donor
3 22 25 26 hydrophobe
6 1 6 7 8 9 10 rings
6 12 17 18 20 21 23 rings
6 8 9 11 13 15 16 rings

> <PUBCHEM_SHAPE_FINGERPRINT>
10165383 225 17107376965390161021
10411042 1 18117835496027366722
104564 63 18194964045759480546
1100329 8 18193557753118580137
11578080 2 17772725231317075912
11646440 116 18338237166963504728
12156800 1 17902757844252445345
12236239 1 18273494572794721319
12293681 160 17906478836841580252
12769317 202 18189884474106801453
12788726 201 18340219530773560444
13134695 92 18341045319566087293
13140716 1 17975405825269658594
13540713 5 18117570518414743414
13583140 156 18264214793572304659
13965767 371 17483427152191937345
14178342 30 17976242561886791922
14464042 87 18343589538376368953
14681490 219 18411138047580705708
14790565 3 17974865161069125868
14866123 147 17760368786463777730
15081414 286 18408606993441395460
17980427 26 17767384035620897924
1813 80 18270407057748981494
18335252 114 18339630184705103221
18681886 176 18271796973611581731
20028762 73 16901290579232804717
20642791 13 18266740187134531646
21033648 29 17459169933108406589
21041028 32 18338518538692129879
21344244 78 18339342103246018555
21478907 32 18266457607686353950
21641784 216 18041577840527055532
22122407 14 18269295564121902985
221357 26 18333723611944891983
23558518 356 18266188231959778020
25147074 1 18115599119820159558
345986 75 18263065648510828050
3886686 26 17329393639326887920
474 4 18263362649979130795
6443956 14 18407758140373555678
70251023 43 18339082571183765706
7164475 11 18341333276001589454
7471813 234 18340475712312883447
84936 182 17837488918572200865
9981440 41 17045404130698943089

> <PUBCHEM_SHAPE_MULTIPOLES>
505.72
9.32
5.03
1.17
8.39
5.91
-0.05
-6.27
1.61
-2.33
-1.67
0.4
0.23
-1.58

> <PUBCHEM_SHAPE_SELFOVERLAP>
1093.424

> <PUBCHEM_SHAPE_VOLUME>
277.1

> <RelativeEnergy>
0

> <StereoisomerIndex>
1

> <TautomerIndex>
1

> <POSE_NUMBER>
6

> <LibDockScore>
100.8414

> <HotSpots>
13.41,6.07,-3.65,P,65,5
9.01,2.67,-14.05,A,21,24
9.41,-1.33,-5.66,A,37,26

> <-In-Situ Starting Energy>
-3602.54269

> <-In-Situ Final Energy>
17.2997277

> <In-Situ Gradient>
0.0009727926906

$$$$
60995
  SciTegic09142310043D

 26 26  0  0  0  0            999 V2000
    6.1275   11.9595   -0.6223 O   0  0  0  1  0  0
    6.3115   11.8917   -3.0209 O   0  0  0  1  0  0
    6.7619    9.8772   -1.6280 C   0  0  0  1  0  0
    6.7323   11.3843   -1.7730 C   0  0  0  1  0  0
    7.4909    9.3140   -2.7970 C   0  0  0  1  0  0
    8.8096    9.6215   -3.0124 C   0  0  0  1  0  0
    6.8444    8.5808   -3.7550 C   0  0  0  1  0  0
    9.4015    9.2309   -4.1818 C   0  0  0  1  0  0
    7.5338    7.9969   -4.8064 C   0  0  0  1  0  0
    8.8345    8.3340   -5.0430 C   0  0  0  1  0  0
    6.6709   13.1250   -0.0300 C   0  0  0  1  0  0
    6.4491   13.2966   -3.2145 C   0  0  0  1  0  0
    5.7806    9.4396   -1.5228 H   0  0
    7.3007    9.6133   -0.7171 H   0  0
    7.7420   11.6106   -1.8630 H   0  0
    9.3647   10.2054   -2.3005 H   0  0
    5.7968    8.4555   -3.6392 H   0  0
   10.3030    9.6702   -4.4331 H   0  0
    7.0665    7.3599   -5.5281 H   0  0
    9.3706    7.9491   -5.8979 H   0  0
    6.9676   13.8587   -0.7694 H   0  0
    7.5143   12.8678    0.6063 H   0  0
    5.9380   13.6176    0.6069 H   0  0
    7.3554   13.7009   -2.7810 H   0  0
    5.7397   13.9018   -2.6768 H   0  0
    6.4001   13.4972   -4.2804 H   0  0
  1  4  1  0
  1 11  1  0
  2  4  1  0
  2 12  1  0
  3  4  1  0
  3  5  1  0
  5  6  2  0
  5  7  1  0
  6  8  1  0
  7  9  2  0
  8 10  2  0
  9 10  1  0
  3 13  1  0
  3 14  1  0
  4 15  1  0
  6 16  1  0
  7 17  1  0
  8 18  1  0
  9 19  1  0
 10 20  1  0
 11 21  1  0
 11 22  1  0
 11 23  1  0
 12 24  1  0
 12 25  1  0
 12 26  1  0
M  END
> <Name>
60995

> <Binding Energy>
-14.2302

> <Ligand Energy>
22.2475

> <Protein Energy>
-7801.1566

> <Complex Energy>
-7793.1394

> <Complex Entropy>
-31.4768

> <Protein Entropy>
-31.4717

> <Ligand Entropy>
-17.7629

> <Entropic Energy>
17.7577

> <AbsoluteEnergy>
22.8203

> <ConfNumber>
7

> <IonizationIndex>
1

> <MOL_NUMBER>
243

> <NumberOfIonizations>
1

> <NumberOfStereoisomers>
1

> <NumberOfTautomers>
1

> <PUBCHEM_ATOM_DEF_STEREO_COUNT>
0

> <PUBCHEM_ATOM_UDEF_STEREO_COUNT>
0

> <PUBCHEM_BOND_DEF_STEREO_COUNT>
0

> <PUBCHEM_BOND_UDEF_STEREO_COUNT>
0

> <PUBCHEM_CACTVS_TAUTO_COUNT>
1

> <PUBCHEM_COMPONENT_COUNT>
1

> <PUBCHEM_COMPOUND_CID>
60995

> <PUBCHEM_CONFORMER_DIVERSEORDER>
2
15
1
4
12
6
8
16
11
3
10
9
14
5
7
13

> <PUBCHEM_CONFORMER_ID>
0000EE4300000002

> <PUBCHEM_CONFORMER_RMSD>
0.6

> <PUBCHEM_COORDINATE_TYPE>
2
5
10

> <PUBCHEM_EFFECTIVE_ROTOR_COUNT>
4

> <PUBCHEM_FEATURE_SELFOVERLAP>
15.259

> <PUBCHEM_HEAVY_ATOM_COUNT>
12

> <PUBCHEM_ISOTOPIC_ATOM_COUNT>
0

> <PUBCHEM_MMFF94_ENERGY>
34.1921

> <PUBCHEM_MMFF94_PARTIAL_CHARGES>
17
1 -0.56
10 -0.15
11 0.28
12 0.28
16 0.15
17 0.15
18 0.15
19 0.15
2 -0.56
20 0.15
3 0.14
4 0.56
5 -0.14
6 -0.15
7 -0.15
8 -0.15
9 -0.15

> <PUBCHEM_PHARMACOPHORE_FEATURES>
3
1 1 acceptor
1 2 acceptor
6 5 6 7 8 9 10 rings

> <PUBCHEM_SHAPE_FINGERPRINT>
10608611 8 18412258441350225360
12897270 3 18273491264988888748
12932764 1 18343580750292967390
13380535 21 18190747436094664187
13380536 127 17894341177198788649
13764800 53 18114747032167516793
14325111 11 18409728456662650456
15219456 202 18343300362064055064
15775835 57 17677045737699395221
16945 1 18336538438536132210
17844478 74 18410582815904957291
18186145 218 17989492926499222326
19973954 147 18413106151877558776
20201158 50 18130223753312658694
20361792 2 14836113360446016865
20645477 70 17917711245118013558
22802520 49 18270121197383158372
23402539 116 18187635968179870406
23402655 69 18060136526813724717
23557571 272 18408893927136942597
2748010 2 18341888580417585476
305870 269 17750224825128968274
6049 1 18413111658088760345
8030462 33 17968367983682676499

> <PUBCHEM_SHAPE_MULTIPOLES>
235.22
6.17
1.54
0.99
0.97
0.45
-0.03
0.34
0.45
0.85
0.17
0.02
0.04
1.08

> <PUBCHEM_SHAPE_SELFOVERLAP>
471.14

> <PUBCHEM_SHAPE_VOLUME>
139.1

> <RelativeEnergy>
0.961072

> <StereoisomerIndex>
1

> <TautomerIndex>
1

> <POSE_NUMBER>
1

> <LibDockScore>
88.0362

> <HotSpots>
7.21,9.27,-3.25,A,45,7
8.41,8.07,-4.86,A,38,10
6.41,14.07,-0.85,A,60,11

> <-In-Situ Starting Energy>
-673.796159

> <-In-Situ Final Energy>
-29.8434388

> <In-Situ Gradient>
0.0009728984832

$$$$
61092
  SciTegic09142310043D

 33 32  0  0  0  0            999 V2000
    6.3902   10.1783   -2.3197 O   0  0  0  1  0  0
    6.0482   11.5204   -0.5633 O   0  0  0  1  0  0
    8.1211    7.9375   -4.8004 C   0  0  2  1  0  0
    9.3730    8.4245   -5.5633 C   0  0  0  1  0  0
    7.9694    8.8406   -3.5433 C   0  0  0  1  0  0
   10.2313    7.4199   -6.4773 C   0  0  0  1  0  0
    8.2108    6.4255   -4.6298 C   0  0  0  1  0  0
   10.8150    7.7147   -7.9080 C   0  0  0  1  0  0
    6.6245    8.8585   -2.8295 C   0  0  0  1  0  0
   11.8006    6.6239   -8.2864 C   0  0  0  1  0  0
   11.2979    5.5669   -9.2377 C   0  0  0  1  0  0
   13.1153    6.7465   -8.0564 C   0  0  0  1  0  0
    6.3909   10.4319   -1.0143 C   0  0  0  1  0  0
    7.1839    8.0703   -5.3087 H   0  0
    9.9147    8.5729   -4.6622 H   0  0
    9.3769    9.4902   -5.7212 H   0  0
    8.7863    8.6810   -2.8551 H   0  0
    8.1042    9.8674   -3.8837 H   0  0
    9.7921    6.4581   -6.4314 H   0  0
   11.0949    7.0153   -5.9800 H   0  0
    9.2319    6.0652   -4.5101 H   0  0
    7.8296    5.9831   -5.5374 H   0  0
    7.6371    6.0286   -3.8035 H   0  0
   11.3440    8.6549   -7.9866 H   0  0
   10.0759    7.7849   -8.7036 H   0  0
    6.5453    8.0927   -2.0557 H   0  0
    5.8596    8.6705   -3.5700 H   0  0
   10.5483    5.9667   -9.9209 H   0  0
   10.8791    4.7244   -8.6918 H   0  0
   12.1134    5.1765   -9.8471 H   0  0
   13.4935    7.5415   -7.4413 H   0  0
   13.8361    6.0602   -8.4609 H   0  0
    6.7180    9.5946   -0.3974 H   0  0
  1  9  1  0
  1 13  1  0
  2 13  2  0
  3  4  1  0
  3  5  1  0
  3  7  1  0
  4  6  1  0
  5  9  1  0
  6  8  1  0
  8 10  1  0
 10 11  1  0
 10 12  2  0
  3 14  1  0
  4 15  1  0
  4 16  1  0
  5 17  1  0
  5 18  1  0
  6 19  1  0
  6 20  1  0
  7 21  1  0
  7 22  1  0
  7 23  1  0
  8 24  1  0
  8 25  1  0
  9 26  1  0
  9 27  1  0
 11 28  1  0
 11 29  1  0
 11 30  1  0
 12 31  1  0
 12 32  1  0
 13 33  1  0
M  END
> <Name>
61092

> <Binding Energy>
-13.5753

> <Ligand Energy>
53.6546

> <Protein Energy>
-7801.1566

> <Complex Energy>
-7761.0774

> <Complex Entropy>
-31.4774

> <Protein Entropy>
-31.4717

> <Ligand Entropy>
-18.3854

> <Entropic Energy>
18.3797

> <AbsoluteEnergy>
10.7442

> <ConfNumber>
1

> <IonizationIndex>
1

> <MOL_NUMBER>
245

> <NumberOfIonizations>
1

> <NumberOfStereoisomers>
1

> <NumberOfTautomers>
1

> <PUBCHEM_ATOM_DEF_STEREO_COUNT>
0

> <PUBCHEM_ATOM_UDEF_STEREO_COUNT>
1

> <PUBCHEM_BOND_DEF_STEREO_COUNT>
0

> <PUBCHEM_BOND_UDEF_STEREO_COUNT>
0

> <PUBCHEM_CACTVS_TAUTO_COUNT>
1

> <PUBCHEM_COMPONENT_COUNT>
1

> <PUBCHEM_COMPOUND_CID>
61092

> <PUBCHEM_CONFORMER_DIVERSEORDER>
1
188
37
59
202
44
94
151
193
173
96
86
201
159
132
62
4
179
212
43
214
191
116
12
165
219
182
171
143
61
2
194
73
142
204
135
56
110
141
119
147
190
174
157
47
109
32
125
169
106
7
9
78
60
17
140
113
71
137
42
58
108
198
3
184
131
74
124
207
150
195
31
46
98
27
102
196
167
164
51
210
77
104
172
155
138
139
92
133
211
208
205
203
146
134
33
187
22
161
89
112
97
115
152
63
28
23
8
177
114
53
39
221
10
181
55
148
6
95
88
149
85
91
35
160
217
5
101
136
93
48
70
215
19
118
175
49
14
82
26
20
213
105
192
189
50
103
166
76
197
65
72
66
117
206
145
99
183
54
144
176
218
67
29
220
80
107
216
15
52
178
123
180
186
156
158
111
81
90
21
120
128
57
121
129
83
100
16
200
75
30
64
126
170
185
18
38
24
162
153
34
87
45
199
79
69
163
127
154
36
168
13
122
209
130
68
41
11
84
25
40

> <PUBCHEM_CONFORMER_ID>
0000EEA400000001

> <PUBCHEM_CONFORMER_RMSD>
0.8

> <PUBCHEM_COORDINATE_TYPE>
2
5
10

> <PUBCHEM_EFFECTIVE_ROTOR_COUNT>
8

> <PUBCHEM_FEATURE_SELFOVERLAP>
20.534

> <PUBCHEM_HEAVY_ATOM_COUNT>
13

> <PUBCHEM_ISOTOPIC_ATOM_COUNT>
0

> <PUBCHEM_MMFF94_ENERGY>
14.4195

> <PUBCHEM_MMFF94_PARTIAL_CHARGES>
11
1 -0.43
10 -0.28
11 0.14
12 -0.3
13 0.66
2 -0.57
31 0.15
32 0.15
33 0.06
8 0.14
9 0.28

> <PUBCHEM_PHARMACOPHORE_FEATURES>
4
1 2 acceptor
1 7 hydrophobe
3 3 4 5 hydrophobe
3 6 8 10 hydrophobe

> <PUBCHEM_SHAPE_FINGERPRINT>
10610426 29 18041277665146582372
11137873 295 18334300877061142691
12363563 72 18339932527867783350
12553582 1 18268730349449370494
13897977 13 9799693697359963947
17834072 14 18340759377686147513
18186145 218 17894907469127408921
20281475 54 18336557083147517085
20645477 56 10811071750108056358
20645477 70 18339919437234557751
20671657 53 18409169913340633949
20871998 22 18410853269885264800
21250096 35 18410290272544544402
21354914 74 18408608067256942366
22169311 21 18265329698072348861
3086196 2 18199183975945745784
5902787 121 18412268298521514376
81539 233 18122061176583678980

> <PUBCHEM_SHAPE_MULTIPOLES>
255.8
8.43
2.78
1.01
3.52
0.52
0.07
-7.11
0.39
-2.54
-0.63
0.1
-0.01
0.15

> <PUBCHEM_SHAPE_SELFOVERLAP>
471.828

> <PUBCHEM_SHAPE_VOLUME>
161.4

> <RelativeEnergy>
0

> <StereoisomerIndex>
1

> <TautomerIndex>
1

> <POSE_NUMBER>
1

> <LibDockScore>
82.9097

> <HotSpots>
5.01,10.27,-0.85,P,81,2
8.61,9.67,-3.85,A,41,5
10.81,8.27,-8.46,A,35,8

> <-In-Situ Starting Energy>
-55373.5423

> <-In-Situ Final Energy>
-50.7632173

> <In-Situ Gradient>
0.0009342427995

$$$$
62341
  SciTegic09142310043D

 24 24  0  0  0  0            999 V2000
    7.0558    3.4621    1.2072 O   0  0  0  1  0  0
    6.9232    2.9370    3.3601 O   0  0  0  1  0  0
    7.5385    2.9850   -0.0484 C   0  0  1  1  0  0
    7.1082    1.5448   -0.1953 C   0  0  0  1  0  0
    6.9825    3.9062   -1.1419 C   0  0  0  1  0  0
    5.9976    1.1752   -0.9531 C   0  0  0  1  0  0
    7.8101    0.5527    0.4860 C   0  0  0  1  0  0
    5.6130   -0.1519   -1.0244 C   0  0  0  1  0  0
    7.4219   -0.7733    0.4271 C   0  0  0  1  0  0
    6.3285   -1.1217   -0.3387 C   0  0  0  1  0  0
    7.6130    3.1219    2.3702 C   0  0  0  1  0  0
    9.1420    2.9605    2.4877 C   0  0  0  1  0  0
    8.6228    3.0313   -0.1000 H   0  0
    7.2560    4.9395   -0.9476 H   0  0
    5.8961    3.9006   -1.1756 H   0  0
    7.3585    3.6307   -2.1271 H   0  0
    5.4246    1.8955   -1.5163 H   0  0
    8.6753    0.8004    1.0743 H   0  0
    4.7799   -0.4376   -1.6491 H   0  0
    7.9762   -1.5377    0.9546 H   0  0
    6.0715   -2.1661   -0.4388 H   0  0
    9.6957    3.1632    1.5857 H   0  0
    9.3975    1.9502    2.7544 H   0  0
    9.5088    3.6124    3.2790 H   0  0
  1  3  1  0
  1 11  1  0
  2 11  2  0
  3  4  1  0
  3  5  1  0
  4  6  2  0
  4  7  1  0
  6  8  1  0
  7  9  2  0
  8 10  2  0
  9 10  1  0
 11 12  1  0
  3 13  1  0
  5 14  1  0
  5 15  1  0
  5 16  1  0
  6 17  1  0
  7 18  1  0
  8 19  1  0
  9 20  1  0
 10 21  1  0
 12 22  1  0
 12 23  1  0
 12 24  1  0
M  END
> <Name>
62341

> <Binding Energy>
-65.0849

> <Ligand Energy>
-3.2258

> <Protein Energy>
-7801.1566

> <Complex Energy>
-7869.4674

> <Complex Entropy>
-31.476

> <Protein Entropy>
-31.4717

> <Ligand Entropy>
-17.7115

> <Entropic Energy>
17.7072

> <AbsoluteEnergy>
26.3447

> <ConfNumber>
12

> <IonizationIndex>
1

> <MOL_NUMBER>
249

> <NumberOfIonizations>
1

> <NumberOfStereoisomers>
1

> <NumberOfTautomers>
1

> <PUBCHEM_ATOM_DEF_STEREO_COUNT>
0

> <PUBCHEM_ATOM_UDEF_STEREO_COUNT>
1

> <PUBCHEM_BOND_DEF_STEREO_COUNT>
0

> <PUBCHEM_BOND_UDEF_STEREO_COUNT>
0

> <PUBCHEM_CACTVS_TAUTO_COUNT>
1

> <PUBCHEM_COMPONENT_COUNT>
1

> <PUBCHEM_COMPOUND_CID>
62341

> <PUBCHEM_CONFORMER_DIVERSEORDER>
2
4
9
3
8
10
11
5
1
7
6

> <PUBCHEM_CONFORMER_ID>
0000F38500000002

> <PUBCHEM_CONFORMER_RMSD>
0.6

> <PUBCHEM_COORDINATE_TYPE>
2
5
10

> <PUBCHEM_EFFECTIVE_ROTOR_COUNT>
3

> <PUBCHEM_FEATURE_SELFOVERLAP>
10.148

> <PUBCHEM_HEAVY_ATOM_COUNT>
12

> <PUBCHEM_ISOTOPIC_ATOM_COUNT>
0

> <PUBCHEM_MMFF94_ENERGY>
27.9632

> <PUBCHEM_MMFF94_PARTIAL_CHARGES>
16
1 -0.43
10 -0.15
11 0.66
12 0.06
17 0.15
18 0.15
19 0.15
2 -0.57
20 0.15
21 0.15
3 0.42
4 -0.14
6 -0.15
7 -0.15
8 -0.15
9 -0.15

> <PUBCHEM_PHARMACOPHORE_FEATURES>
2
1 2 acceptor
6 4 6 7 8 9 10 rings

> <PUBCHEM_SHAPE_FINGERPRINT>
1 1 18412260606272186094
10857977 72 17458356229762870081
11031198 65 18343022168315842573
12326174 3 17916028962447309350
12423570 1 13994510532996756687
12524768 44 18115590327373316591
13839132 238 17895752881398995653
14648413 74 18047187458114205605
15219456 202 18261115123346441363
15775835 57 18201435899907255212
16945 1 18267023843073485263
18380122 1 18187659006695520115
19973954 147 18192711137944596125
20379382 53 18125740997066792355
20645464 45 18040714723556112073
20645477 56 18194124238610684564
20653085 51 16558194928761959848
20871998 184 18117289257432361283
21028194 46 18408038528707735400
21501502 16 18335976498037357427
21524375 3 18337949094980466930
21947302 44 18190167993298079529
23211744 41 18186518782904024811
23235685 24 18408318908378335596
25 1 18130797767160051560
2748010 2 18335143093861210942
369184 2 16009018497614828977
5084963 1 18057883734872922684
63268167 104 17918275337669657920
81228 2 17620181474813093922

> <PUBCHEM_SHAPE_MULTIPOLES>
235.22
4.27
1.91
1.1
0.47
1.15
-0.03
-2.26
-0.26
0.92
0.39
-0.3
-0.13
0.57

> <PUBCHEM_SHAPE_SELFOVERLAP>
482.7

> <PUBCHEM_SHAPE_VOLUME>
135.3

> <RelativeEnergy>
9.48504

> <StereoisomerIndex>
1

> <TautomerIndex>
1

> <POSE_NUMBER>
1

> <LibDockScore>
72.2893

> <HotSpots>
7.61,2.87,-1.05,A,58,5
6.01,0.67,0.55,A,70,6
7.21,3.07,2.94,A,85,12

> <-In-Situ Starting Energy>
-102.551213

> <-In-Situ Final Energy>
22.9827023

> <In-Situ Gradient>
0.0008599305119

$$$$
637776
  SciTegic09142310043D

 27 27  0  0  0  0            999 V2000
    8.9083    2.7857    1.3741 O   0  0  0  1  0  0
    7.0111    0.9661    2.9446 O   0  0  0  1  0  0
    7.2021    1.0755   -1.2694 C   0  0  0  1  0  0
    7.9459    1.9164    0.8702 C   0  0  0  1  0  0
    7.0538    1.0547    1.5405 C   0  0  0  1  0  0
    7.9855    1.9232   -0.5132 C   0  0  0  1  0  0
    6.3058    0.2374   -0.6311 C   0  0  0  1  0  0
    6.2277    0.2466    0.7481 C   0  0  0  1  0  0
    7.4439    0.9891   -2.7042 C   0  0  0  1  0  0
    6.6309    0.3401   -3.5512 C   0  0  0  1  0  0
    8.9569    3.0693    2.7442 C   0  0  0  1  0  0
    7.0534    0.0526   -4.9526 C   0  0  0  1  0  0
    6.0941    0.0040    3.4725 C   0  0  0  1  0  0
    8.6951    2.5754   -0.9982 H   0  0
    5.6997   -0.4692   -1.1785 H   0  0
    5.5287   -0.4476    1.1683 H   0  0
    8.3346    1.4571   -3.0799 H   0  0
    5.6837   -0.0749   -3.2653 H   0  0
    9.2666    2.1989    3.2826 H   0  0
    8.0222    3.5090    3.0910 H   0  0
    9.7609    3.7698    2.9406 H   0  0
    6.9365   -1.0024   -5.1801 H   0  0
    8.1120    0.2645   -5.0723 H   0  0
    6.4588    0.6392   -5.6495 H   0  0
    6.2422   -0.9734    3.0260 H   0  0
    5.0751    0.3483    3.3250 H   0  0
    6.2064   -0.1730    4.5424 H   0  0
  1  4  1  0
  1 11  1  0
  2  5  1  0
  2 13  1  0
  3  6  2  0
  3  7  1  0
  3  9  1  0
  4  5  2  0
  4  6  1  0
  5  8  1  0
  7  8  2  0
  9 10  2  0
 10 12  1  0
  6 14  1  0
  7 15  1  0
  8 16  1  0
  9 17  1  0
 10 18  1  0
 11 19  1  0
 11 20  1  0
 11 21  1  0
 12 22  1  0
 12 23  1  0
 12 24  1  0
 13 25  1  0
 13 26  1  0
 13 27  1  0
M  END
> <Name>
637776

> <Binding Energy>
-21.7598

> <Ligand Energy>
26.9523

> <Protein Energy>
-7801.1566

> <Complex Energy>
-7795.9642

> <Complex Entropy>
-31.4764

> <Protein Entropy>
-31.4717

> <Ligand Entropy>
-18.0743

> <Entropic Energy>
18.0695

> <AbsoluteEnergy>
49.2439

> <ConfNumber>
5

> <IonizationIndex>
1

> <MOL_NUMBER>
253

> <NumberOfIonizations>
1

> <NumberOfStereoisomers>
1

> <NumberOfTautomers>
1

> <PUBCHEM_ATOM_DEF_STEREO_COUNT>
0

> <PUBCHEM_ATOM_UDEF_STEREO_COUNT>
0

> <PUBCHEM_BOND_DEF_STEREO_COUNT>
1

> <PUBCHEM_BOND_UDEF_STEREO_COUNT>
0

> <PUBCHEM_CACTVS_TAUTO_COUNT>
1

> <PUBCHEM_COMPONENT_COUNT>
1

> <PUBCHEM_COMPOUND_CID>
637776

> <PUBCHEM_CONFORMER_DIVERSEORDER>
4
2
1
3

> <PUBCHEM_CONFORMER_ID>
0009BB5000000004

> <PUBCHEM_CONFORMER_RMSD>
0.6

> <PUBCHEM_COORDINATE_TYPE>
2
5
10

> <PUBCHEM_EFFECTIVE_ROTOR_COUNT>
3

> <PUBCHEM_FEATURE_SELFOVERLAP>
20.301

> <PUBCHEM_HEAVY_ATOM_COUNT>
13

> <PUBCHEM_ISOTOPIC_ATOM_COUNT>
0

> <PUBCHEM_MMFF94_ENERGY>
51.7095

> <PUBCHEM_MMFF94_PARTIAL_CHARGES>
18
1 -0.36
10 -0.29
11 0.28
12 0.14
13 0.28
14 0.15
15 0.15
16 0.15
17 0.15
18 0.15
2 -0.36
3 0.03
4 0.08
5 0.08
6 -0.15
7 -0.15
8 -0.15
9 -0.18

> <PUBCHEM_PHARMACOPHORE_FEATURES>
4
1 1 acceptor
1 12 hydrophobe
1 2 acceptor
6 3 4 5 6 7 8 rings

> <PUBCHEM_SHAPE_FINGERPRINT>
10980938 120 18411697707731531265
11471102 20 18409445903543854885
12032990 46 18337956671529701771
12138202 78 18410014295336715908
12346645 6 18413669114768363238
12932764 1 17418082239913726177
13380535 76 18335418036197932626
14251717 144 18411696578229089351
14325111 11 18408602565688718265
14576447 43 18057589066474376863
14617773 55 17916877798361556553
14897335 6 18338513144324060259
15219456 202 18260554450179432835
15442244 35 18196938768922781593
15477762 27 18270117903196347182
15536298 74 18342175540088443755
161256 15 18335421210300044612
16945 1 18339652225374881552
170605 34 18260263087755327633
18186145 218 17894911776953148567
193761 8 18193839236948787640
19422 9 18130227065070099387
20279233 1 17748829631220818987
20588541 1 18334577992050130841
20645476 183 17389677594134736140
20645477 70 18411413986919772967
20671657 53 18194685864901548566
20871998 22 18197777687541400502
21501502 16 18268998587511182161
21501925 9 18338506439690356842
23402655 69 18411689994698346165
23557571 272 16588014685187819325
25 1 18336542832235071341
2748010 2 18263355893737059516
3071541 250 18268719311678721510
3071541 37 18335425694351435660
449060 50 18261394494438081957
449060 62 18412546539129479313
528886 8 18337667645457075065
53812653 166 18340202019822558249
581208 293 18412258454171524913
7364860 26 18342176652891142274
81539 233 18334012843284275324

> <PUBCHEM_SHAPE_MULTIPOLES>
255.8
6.75
2.21
0.69
8.19
0.45
-0.03
-0.69
-0.89
-3.05
-0.31
-0.06
0.13
0.22

> <PUBCHEM_SHAPE_SELFOVERLAP>
521.385

> <PUBCHEM_SHAPE_VOLUME>
150.1

> <RelativeEnergy>
11.8802

> <StereoisomerIndex>
1

> <TautomerIndex>
1

> <POSE_NUMBER>
1

> <LibDockScore>
68.5096

> <HotSpots>
6.01,0.67,0.55,A,70,8
7.21,1.27,-2.85,A,46,9
9.21,2.67,2.54,A,84,11

> <-In-Situ Starting Energy>
-681.487186

> <-In-Situ Final Energy>
-3.77984708

> <In-Situ Gradient>
0.0008740444302

$$$$
638011
  SciTegic09142310043D

 27 26  0  0  0  0            999 V2000
    5.8634   14.3052    0.8070 O   0  0  0  1  0  0
    7.3722   10.4692   -1.6021 C   0  0  0  1  0  0
    6.4407    9.6215   -2.4283 C   0  0  0  1  0  0
    6.6703   11.2575   -0.5301 C   0  0  0  1  0  0
    6.9332    8.8108   -3.5973 C   0  0  0  1  0  0
    8.1646    8.5134   -4.0481 C   0  0  0  1  0  0
    6.1792   10.3629    0.5701 C   0  0  0  1  0  0
    6.7297   12.6032   -0.4938 C   0  0  0  1  0  0
    9.4671    9.0773   -3.5763 C   0  0  0  1  0  0
    8.3870    7.5503   -5.1856 C   0  0  0  1  0  0
    6.6165   13.3478    0.7682 C   0  0  0  1  0  0
    7.9055   11.1492   -2.2556 H   0  0
    8.1037    9.8327   -1.1190 H   0  0
    5.9229    8.9367   -1.7571 H   0  0
    5.7264   10.3294   -2.7820 H   0  0
    6.1126    8.4738   -4.1976 H   0  0
    6.8025    9.4858    0.6720 H   0  0
    5.1748   10.0027    0.3489 H   0  0
    6.1726   10.8880    1.5204 H   0  0
    6.9115   13.1786   -1.3825 H   0  0
   10.0830    8.2698   -3.1937 H   0  0
    9.3866    9.8144   -2.7924 H   0  0
    9.9630    9.5595   -4.4109 H   0  0
    7.4483    7.2200   -5.6240 H   0  0
    8.9143    6.6649   -4.8322 H   0  0
    8.9949    8.0003   -5.9655 H   0  0
    7.2102   12.9720    1.6009 H   0  0
  1 11  2  0
  2  3  1  0
  2  4  1  0
  3  5  1  0
  4  7  1  0
  4  8  2  0
  5  6  2  0
  6  9  1  0
  6 10  1  0
  8 11  1  0
  2 12  1  0
  2 13  1  0
  3 14  1  0
  3 15  1  0
  5 16  1  0
  7 17  1  0
  7 18  1  0
  7 19  1  0
  8 20  1  0
  9 21  1  0
  9 22  1  0
  9 23  1  0
 10 24  1  0
 10 25  1  0
 10 26  1  0
 11 27  1  0
M  END
> <Name>
638011

> <Binding Energy>
-27.3406

> <Ligand Energy>
49.5934

> <Protein Energy>
-7801.1566

> <Complex Energy>
-7778.9039

> <Complex Entropy>
-31.4764

> <Protein Entropy>
-31.4717

> <Ligand Entropy>
-17.7661

> <Entropic Energy>
17.7614

> <AbsoluteEnergy>
25.8187

> <ConfNumber>
83

> <IonizationIndex>
1

> <MOL_NUMBER>
254

> <NumberOfIonizations>
1

> <NumberOfStereoisomers>
1

> <NumberOfTautomers>
1

> <PUBCHEM_ATOM_DEF_STEREO_COUNT>
0

> <PUBCHEM_ATOM_UDEF_STEREO_COUNT>
0

> <PUBCHEM_BOND_DEF_STEREO_COUNT>
1

> <PUBCHEM_BOND_UDEF_STEREO_COUNT>
0

> <PUBCHEM_CACTVS_TAUTO_COUNT>
1

> <PUBCHEM_COMPONENT_COUNT>
1

> <PUBCHEM_COMPOUND_CID>
638011

> <PUBCHEM_CONFORMER_DIVERSEORDER>
1
39
42
26
33
22
14
16
35
6
32
34
23
3
41
20
15
8
38
49
7
5
48
44
17
2
19
25
40
18
46
13
31
10
9
27
4
45
12
11
36
47
24
29
37
28
43
30
21

> <PUBCHEM_CONFORMER_ID>
0009BC3B00000001

> <PUBCHEM_CONFORMER_RMSD>
0.6

> <PUBCHEM_COORDINATE_TYPE>
2
5
10

> <PUBCHEM_EFFECTIVE_ROTOR_COUNT>
4

> <PUBCHEM_FEATURE_SELFOVERLAP>
20.317

> <PUBCHEM_HEAVY_ATOM_COUNT>
11

> <PUBCHEM_ISOTOPIC_ATOM_COUNT>
0

> <PUBCHEM_MMFF94_ENERGY>
13.2141

> <PUBCHEM_MMFF94_PARTIAL_CHARGES>
14
1 -0.57
10 0.14
11 0.5
16 0.15
2 0.14
26 0.15
27 0.06
3 0.14
4 -0.28
5 -0.29
6 -0.28
7 0.14
8 -0.14
9 0.14

> <PUBCHEM_PHARMACOPHORE_FEATURES>
4
1 1 acceptor
1 7 hydrophobe
3 6 9 10 hydrophobe
4 2 3 4 5 hydrophobe

> <PUBCHEM_SHAPE_FINGERPRINT>
12897270 3 16298395647140465504
14115302 16 18046345223807376684
14252887 29 17917438665213562858
15276787 5 13182747987563794326
18186145 218 13840268069908732045
18522851 12 18194705703460944994
18522851 268 17531806844687676022
19766037 51 18337122231849919783
20201158 50 18335415815626072170
20281407 28 18334858324855444251
20645477 70 18200308961235525063
20711978 78 18057872726851040289
20711983 138 18200022928728703617
20820808 20 11891599257078783405
20871998 22 18202569470862922288
23500284 5 18269556052690821707
23557571 272 17458888405875221964
528862 383 18057882639619592308
58734985 102 17313950860537541829
59915604 170 15575009406490709748
81228 2 17413303564690091040
94968 8 18337677519650367307

> <PUBCHEM_SHAPE_MULTIPOLES>
220.51
5.42
1.93
1.21
1.77
0.02
0.51
-4.01
0.13
-0.12
-0.4
-0.38
0.17
0.11

> <PUBCHEM_SHAPE_SELFOVERLAP>
411.401

> <PUBCHEM_SHAPE_VOLUME>
138.6

> <RelativeEnergy>
10.463

> <StereoisomerIndex>
1

> <TautomerIndex>
1

> <POSE_NUMBER>
1

> <LibDockScore>
81.7488

> <HotSpots>
6.21,14.47,-1.25,P,80,1
8.01,10.07,-2.25,A,50,2
8.41,8.07,-4.86,A,38,9

> <-In-Situ Starting Energy>
-335.633214

> <-In-Situ Final Energy>
-28.5316351

> <In-Situ Gradient>
0.0007570336177

$$$$
639665
  SciTegic09142310043D

 48 49  0  0  0  0            999 V2000
   14.3520   -0.4674  -15.4497 O   0  0  0  1  0  0
   12.4037   -4.4493  -13.7040 O   0  0  0  1  0  0
   17.0545   -4.4622  -15.0831 O   0  0  0  1  0  0
   11.0596   -2.2561  -14.1293 O   0  0  0  1  0  0
   11.4500    5.7236  -12.1512 O   0  0  0  1  0  0
   14.7787   -4.5005  -14.3270 C   0  0  0  1  0  0
   15.0091   -5.9305  -13.9019 C   0  0  0  1  0  0
   13.5684   -3.8117  -14.1254 C   0  0  0  1  0  0
   13.4903   -2.4425  -14.3953 C   0  0  0  1  0  0
   15.8406   -3.8211  -14.9187 C   0  0  0  1  0  0
   14.5353   -1.7981  -15.0637 C   0  0  0  1  0  0
   15.7119   -2.4990  -15.3126 C   0  0  0  1  0  0
   15.1148   -6.8500  -15.0850 C   0  0  0  1  0  0
   12.2909   -1.6954  -13.9699 C   0  0  0  1  0  0
   14.1580   -7.6627  -15.5617 C   0  0  0  1  0  0
   12.4452   -0.4837  -13.4009 C   0  0  0  1  0  0
   12.8202   -7.8809  -14.8997 C   0  0  0  1  0  0
   14.4633   -8.6281  -16.6766 C   0  0  0  1  0  0
   11.3371    0.3544  -12.9181 C   0  0  0  1  0  0
   11.3803    1.6891  -12.7268 C   0  0  0  1  0  0
   15.2022    0.0193  -16.4696 C   0  0  0  1  0  0
   10.2103    2.4164  -12.1970 C   0  0  0  1  0  0
   12.5691    2.5113  -13.0355 C   0  0  0  1  0  0
   10.2072    3.7497  -11.9963 C   0  0  0  1  0  0
   12.6065    3.8424  -12.8362 C   0  0  0  1  0  0
   11.4186    4.5413  -12.3071 C   0  0  0  1  0  0
   12.4944   -4.7851  -12.8188 H   0  0
   17.2904   -4.4966  -16.0007 H   0  0
   11.1911   -3.1703  -14.3561 H   0  0
   15.9410   -5.9838  -13.3383 H   0  0
   14.2529   -6.2696  -13.2058 H   0  0
   16.5547   -2.0141  -15.7775 H   0  0
   16.1011   -6.8908  -15.5124 H   0  0
   13.4275   -0.0732  -13.2685 H   0  0
   12.0560   -7.2941  -15.4034 H   0  0
   12.8149   -7.5609  -13.8631 H   0  0
   12.5340   -8.9322  -14.9104 H   0  0
   15.5345   -8.6628  -16.8776 H   0  0
   13.9685   -8.3100  -17.5935 H   0  0
   14.1200   -9.6306  -16.4285 H   0  0
   10.4322   -0.1886  -12.7175 H   0  0
   15.1768   -0.6311  -17.3456 H   0  0
   16.2260    0.1274  -16.1108 H   0  0
   14.8607    1.0063  -16.7804 H   0  0
    9.3348    1.8362  -11.9665 H   0  0
   13.4386    2.0282  -13.4389 H   0  0
    9.3411    4.2536  -11.6138 H   0  0
   13.4875    4.4132  -13.0565 H   0  0
  1 11  1  0
  1 21  1  0
  2  8  1  0
  3 10  1  0
  4 14  1  0
  5 26  2  0
  6  7  1  0
  6  8  2  0
  6 10  1  0
  7 13  1  0
  8  9  1  0
  9 11  2  0
  9 14  1  0
 10 12  2  0
 11 12  1  0
 13 15  2  0
 14 16  2  0
 15 17  1  0
 15 18  1  0
 16 19  1  0
 19 20  2  0
 20 22  1  0
 20 23  1  0
 22 24  2  0
 23 25  2  0
 24 26  1  0
 25 26  1  0
  2 27  1  0
  3 28  1  0
  4 29  1  0
  7 30  1  0
  7 31  1  0
 12 32  1  0
 13 33  1  0
 16 34  1  0
 17 35  1  0
 17 36  1  0
 17 37  1  0
 18 38  1  0
 18 39  1  0
 18 40  1  0
 19 41  1  0
 21 42  1  0
 21 43  1  0
 21 44  1  0
 22 45  1  0
 23 46  1  0
 24 47  1  0
 25 48  1  0
M  END
> <Name>
639665

> <Binding Energy>
-59.0674

> <Ligand Energy>
43.8756

> <Protein Energy>
-7801.1566

> <Complex Energy>
-7816.3484

> <Complex Entropy>
-31.4857

> <Protein Entropy>
-31.4717

> <Ligand Entropy>
-19.988

> <Entropic Energy>
19.9739

> <AbsoluteEnergy>
52.6569

> <ConfNumber>
11

> <Ionization pH>
7.5

> <IonizationIndex>
1

> <MOL_NUMBER>
260

> <NumberOfIonizations>
1

> <NumberOfStereoisomers>
1

> <NumberOfTautomers>
4

> <PUBCHEM_ATOM_DEF_STEREO_COUNT>
0

> <PUBCHEM_ATOM_UDEF_STEREO_COUNT>
0

> <PUBCHEM_BOND_DEF_STEREO_COUNT>
1

> <PUBCHEM_BOND_UDEF_STEREO_COUNT>
0

> <PUBCHEM_CACTVS_TAUTO_COUNT>
57

> <PUBCHEM_COMPONENT_COUNT>
1

> <PUBCHEM_COMPOUND_CID>
639665

> <PUBCHEM_CONFORMER_DIVERSEORDER>
2
17
81
28
47
65
84
85
14
29
31
75
74
79
13
83
62
30
8
44
87
80
89
48
77
60
73
90
70
69
32
27
94
41
72
36
37
93
63
39
1
43
34
24
9
67
54
76
7
78
4
59
88
92
51
3
10
86
82
42
49
58
40
21
6
46
11
61
25
23
33
56
55
66
16
71
38
53
26
45
52
12
5
22
15
57
35
19
68
91
64
50
20
18

> <PUBCHEM_CONFORMER_ID>
0009C2B100000002

> <PUBCHEM_CONFORMER_RMSD>
0.8

> <PUBCHEM_COORDINATE_TYPE>
2
5
10

> <PUBCHEM_EFFECTIVE_ROTOR_COUNT>
6

> <PUBCHEM_FEATURE_SELFOVERLAP>
40.596

> <PUBCHEM_HEAVY_ATOM_COUNT>
26

> <PUBCHEM_ISOTOPIC_ATOM_COUNT>
0

> <PUBCHEM_MMFF94_ENERGY>
88.5835

> <PUBCHEM_MMFF94_PARTIAL_CHARGES>
37
1 -0.36
10 0.08
11 0.08
12 -0.15
13 -0.29
14 0.47
15 -0.28
16 -0.14
17 0.14
18 0.14
19 -0.18
2 -0.53
20 0.03
21 0.28
22 -0.15
23 -0.15
24 -0.15
25 -0.15
26 0.08
29 0.15
3 -0.53
30 0.15
31 0.15
38 0.45
39 0.45
4 -0.57
40 0.15
44 0.15
45 0.15
46 0.15
47 0.15
48 0.45
5 -0.53
6 -0.14
7 0.28
8 0.08
9 0.09

> <PUBCHEM_PHARMACOPHORE_FEATURES>
8
1 1 acceptor
1 2 donor
1 3 donor
1 4 acceptor
1 5 donor
3 15 17 18 hydrophobe
6 20 22 23 24 25 26 rings
6 6 8 9 10 11 12 rings

> <PUBCHEM_SHAPE_FINGERPRINT>
10498660 4 16343417298693199515
10937287 8 18267583700792767766
11505856 67 17324383172732455044
13878862 14 18189310455870139317
13955234 65 18262236599680322739
13965767 371 17753023259006757844
14251740 57 11314292958838281752
14251764 75 18340210811884681825
146900 427 18408888429963801929
14848178 96 18267862955224465800
14849402 71 18334576854501073236
14955137 171 18263359205858867474
15142526 21 18338515360585188067
15348495 7 18040439888973335963
15475509 8 18271816671064304862
15475509 84 18045207251016789032
20567600 247 8502363426308753977
21033648 144 18262226820297447365
21133410 62 18194984038970018145
21285901 2 13183019609954502978
21304303 94 10519695679341953517
22122407 14 18340216193974596017
23559900 14 17915193325579824447
23569914 152 10373373639028587449
23845131 108 18188486990359539699
245318 6 18264219173785196053
3178227 256 18113618946375515458
3472631 163 18131636699048707885
34797466 226 14189281691328617081
38570 142 18339375166094179948
474 4 18411134766146427003
5104073 3 18187359973708095523
633830 44 18343018921405262214
653340 110 17753339951934724043

> <PUBCHEM_SHAPE_MULTIPOLES>
505.72
13.65
4.84
1.5
22.79
1.23
0.15
12.37
-3.76
-7.51
-0.88
0.36
0.1
-1.77

> <PUBCHEM_SHAPE_SELFOVERLAP>
1074.877

> <PUBCHEM_SHAPE_VOLUME>
282.4

> <RelativeEnergy>
5.66757

> <StereoisomerIndex>
1

> <TautomerIndex>
2

> <POSE_NUMBER>
1

> <LibDockScore>
103.191

> <HotSpots>
11.41,-3.13,-14.46,P,20,4
15.61,-6.73,-13.65,A,23,7
13.01,-7.53,-14.86,A,17,17

> <-In-Situ Starting Energy>
-587.296009

> <-In-Situ Final Energy>
7.0403807

> <In-Situ Gradient>
0.0009955914272

$$$$
643820
  SciTegic09142310043D

 29 28  0  0  0  0            999 V2000
    9.3133    8.4837   -6.4866 O   0  0  0  1  0  0
    6.8464   10.0159   -3.7802 C   0  0  0  1  0  0
    6.4308   11.2537   -2.9298 C   0  0  0  1  0  0
    8.1617    9.3779   -3.4231 C   0  0  0  1  0  0
    6.0373   10.7802   -1.5693 C   0  0  0  1  0  0
    6.2637   11.4022   -0.4085 C   0  0  0  1  0  0
    8.7385   10.0061   -2.2045 C   0  0  0  1  0  0
    8.9652    8.5525   -4.1152 C   0  0  0  1  0  0
    6.6893   12.8368   -0.1692 C   0  0  0  1  0  0
    6.1539   10.5390    0.8004 C   0  0  0  1  0  0
    8.7297    7.7923   -5.3842 C   0  0  0  1  0  0
   10.2357    8.2468   -6.5855 H   0  0
    6.0757    9.2590   -3.6392 H   0  0
    6.8006   10.2177   -4.8400 H   0  0
    5.7908   11.9580   -3.4373 H   0  0
    7.1367   11.9831   -2.6618 H   0  0
    5.7192    9.7581   -1.5325 H   0  0
    8.2130    9.7471   -1.2903 H   0  0
    8.7337   11.0512   -2.2972 H   0  0
    9.7821    9.8107   -2.1287 H   0  0
    9.8762    8.2703   -3.6302 H   0  0
    5.8868   13.4556    0.2253 H   0  0
    7.0256   13.3275   -1.0804 H   0  0
    7.4899   12.8755    0.5674 H   0  0
    6.9150    9.7711    0.7618 H   0  0
    5.1948   10.0208    0.8180 H   0  0
    6.2850   11.1227    1.7085 H   0  0
    9.1037    6.7657   -5.2883 H   0  0
    7.6592    7.6843   -5.5367 H   0  0
  1 11  1  0
  2  3  1  0
  2  4  1  0
  3  5  1  0
  4  7  1  0
  4  8  2  0
  5  6  2  0
  6  9  1  0
  6 10  1  0
  8 11  1  0
  1 12  1  0
  2 13  1  0
  2 14  1  0
  3 15  1  0
  3 16  1  0
  5 17  1  0
  7 18  1  0
  7 19  1  0
  7 20  1  0
  8 21  1  0
  9 22  1  0
  9 23  1  0
  9 24  1  0
 10 25  1  0
 10 26  1  0
 10 27  1  0
 11 28  1  0
 11 29  1  0
M  END
> <Name>
643820

> <Binding Energy>
-5.5731

> <Ligand Energy>
84.578

> <Protein Energy>
-7801.1566

> <Complex Energy>
-7722.1518

> <Complex Entropy>
-31.4764

> <Protein Entropy>
-31.4717

> <Ligand Entropy>
-17.7337

> <Entropic Energy>
17.7289

> <AbsoluteEnergy>
31.3146

> <ConfNumber>
37

> <IonizationIndex>
1

> <MOL_NUMBER>
263

> <NumberOfIonizations>
1

> <NumberOfStereoisomers>
1

> <NumberOfTautomers>
1

> <PUBCHEM_ATOM_DEF_STEREO_COUNT>
0

> <PUBCHEM_ATOM_UDEF_STEREO_COUNT>
0

> <PUBCHEM_BOND_DEF_STEREO_COUNT>
1

> <PUBCHEM_BOND_UDEF_STEREO_COUNT>
0

> <PUBCHEM_CACTVS_TAUTO_COUNT>
1

> <PUBCHEM_COMPONENT_COUNT>
1

> <PUBCHEM_COMPOUND_CID>
643820

> <PUBCHEM_CONFORMER_DIVERSEORDER>
4
19
78
81
73
36
17
53
43
71
76
25
9
8
52
80
7
16
59
55
79
24
56
64
47
65
57
77
6
44
20
13
23
69
75
18
35
3
70
39
14
29
33
67
63
66
49
54
62
34
61
48
72
38
15
40
74
21
5
68
46
2
37
60
22
28
31
32
58
1
27
11
45
26
30
50
41
10
42
12
51

> <PUBCHEM_CONFORMER_ID>
0009D2EC00000004

> <PUBCHEM_CONFORMER_RMSD>
0.6

> <PUBCHEM_COORDINATE_TYPE>
2
5
10

> <PUBCHEM_EFFECTIVE_ROTOR_COUNT>
4

> <PUBCHEM_FEATURE_SELFOVERLAP>
25.391

> <PUBCHEM_HEAVY_ATOM_COUNT>
11

> <PUBCHEM_ISOTOPIC_ATOM_COUNT>
0

> <PUBCHEM_MMFF94_ENERGY>
8.2745

> <PUBCHEM_MMFF94_PARTIAL_CHARGES>
14
1 -0.68
10 0.14
11 0.42
16 0.15
2 0.14
20 0.15
29 0.4
3 0.14
4 -0.28
5 -0.29
6 -0.28
7 0.14
8 -0.29
9 0.14

> <PUBCHEM_PHARMACOPHORE_FEATURES>
5
1 1 acceptor
1 1 donor
1 7 hydrophobe
3 6 9 10 hydrophobe
4 2 3 4 5 hydrophobe

> <PUBCHEM_SHAPE_FINGERPRINT>
10857977 72 16805042925839350103
12696612 119 18337669702809635276
12932764 1 17897174515916668071
13549 16 10519166792932009323
13618510 140 18272089344629925061
14251711 518 18342164587906456448
14648413 74 17983870990349618159
15775835 57 18271246130943653224
17834069 17 18260542359434927334
17841504 4 18043804277999850283
19837323 101 17630882914001045318
19973954 147 18198911301283080449
20379382 53 17896875448421960798
20539784 86 17970069950230377875
20653085 51 18057894726137318894
20828058 43 18409452496286791331
21028194 46 18273217520995404986
21061003 4 17318141971440568274
21130352 189 17622724219694751487
21524375 3 18339920532234953228
21922407 69 18190998214740124355
22802520 49 15698007378591097218
22959321 28 18412267267708199433
430814 3 18343014519137214054

> <PUBCHEM_SHAPE_MULTIPOLES>
220.51
4.47
2.19
1.24
1.42
0.77
0.09
2.23
-0.94
-0.75
-0.31
0.06
-0.63
-0.19

> <PUBCHEM_SHAPE_SELFOVERLAP>
406.969

> <PUBCHEM_SHAPE_VOLUME>
140.1

> <RelativeEnergy>
12.5755

> <StereoisomerIndex>
1

> <TautomerIndex>
1

> <POSE_NUMBER>
1

> <LibDockScore>
74.2387

> <HotSpots>
10.01,10.27,-5.66,P,55,1
7.01,11.07,-2.85,A,47,3
6.41,11.47,-0.06,A,67,9

> <-In-Situ Starting Energy>
-1022.81277

> <-In-Situ Final Energy>
-77.4971314

> <In-Situ Gradient>
0.0009197311939

$$$$
657298
  SciTegic09142310043D

 21 21  0  0  0  0            999 V2000
    6.7812   14.3729    1.5458 S   0  0  0  1  0  0
    6.7776   13.7451   -3.2727 O   0  0  0  1  0  0
    6.7221   12.0255    0.2666 N   0  0  0  1  0  0
    6.7091   13.9606   -1.0279 N   0  0  0  1  0  0
    7.1497    9.7369   -0.8766 C   0  0  0  1  0  0
    6.8466   11.1955   -0.9451 C   0  0  0  1  0  0
    6.0247    8.7829   -0.5140 C   0  0  0  1  0  0
    6.8818   11.7971   -2.1332 C   0  0  0  1  0  0
    5.8424    7.7904   -1.6603 C   0  0  0  1  0  0
    6.6959   13.3833    0.1952 C   0  0  0  1  0  0
    6.8169   13.2725   -2.1606 C   0  0  0  1  0  0
    6.8710   11.5934    1.1631 H   0  0
    6.6986   14.9522   -1.1559 H   0  0
    7.9088    9.6238   -0.1344 H   0  0
    7.6287    9.4289   -1.8075 H   0  0
    6.2630    8.2434    0.4034 H   0  0
    5.1034    9.3254   -0.3034 H   0  0
    6.9542   11.2324   -3.0448 H   0  0
    6.7271    7.2431   -1.9627 H   0  0
    5.5786    8.3275   -2.5617 H   0  0
    5.1077    7.0453   -1.3945 H   0  0
  1 10  2  0
  2 11  2  0
  3  6  1  0
  3 10  1  0
  4 10  1  0
  4 11  1  0
  5  6  1  0
  5  7  1  0
  6  8  2  0
  7  9  1  0
  8 11  1  0
  3 12  1  0
  4 13  1  0
  5 14  1  0
  5 15  1  0
  7 16  1  0
  7 17  1  0
  8 18  1  0
  9 19  1  0
  9 20  1  0
  9 21  1  0
M  END
> <Name>
657298

> <Binding Energy>
-0.8522

> <Ligand Energy>
4.2981

> <Protein Energy>
-7801.1566

> <Complex Energy>
-7797.7108

> <Complex Entropy>
-31.4771

> <Protein Entropy>
-31.4717

> <Ligand Entropy>
-17.8923

> <Entropic Energy>
17.8869

> <AbsoluteEnergy>
8.96193

> <ConfNumber>
1

> <Ionization pH>
7.8_P

> <IonizationIndex>
1

> <MOL_NUMBER>
270

> <NumberOfIonizations>
2

> <NumberOfStereoisomers>
1

> <NumberOfTautomers>
6

> <PUBCHEM_ATOM_DEF_STEREO_COUNT>
0

> <PUBCHEM_ATOM_UDEF_STEREO_COUNT>
0

> <PUBCHEM_BOND_DEF_STEREO_COUNT>
0

> <PUBCHEM_BOND_UDEF_STEREO_COUNT>
0

> <PUBCHEM_CACTVS_TAUTO_COUNT>
6

> <PUBCHEM_COMPONENT_COUNT>
1

> <PUBCHEM_COMPOUND_CID>
657298

> <PUBCHEM_CONFORMER_DIVERSEORDER>
1
9
5
8
4
3
7
6
2

> <PUBCHEM_CONFORMER_ID>
000A079200000001

> <PUBCHEM_CONFORMER_RMSD>
0.4

> <PUBCHEM_COORDINATE_TYPE>
2
5
10

> <PUBCHEM_EFFECTIVE_ROTOR_COUNT>
2

> <PUBCHEM_FEATURE_SELFOVERLAP>
30.488

> <PUBCHEM_HEAVY_ATOM_COUNT>
11

> <PUBCHEM_ISOTOPIC_ATOM_COUNT>
0

> <PUBCHEM_MMFF94_ENERGY>
11.312

> <PUBCHEM_MMFF94_PARTIAL_CHARGES>
12
1 -0.38
10 0.5
11 0.62
16 0.37
17 0.15
2 -0.57
21 0.37
3 -0.54
4 -0.49
5 0.14
6 -0.03
8 -0.14

> <PUBCHEM_PHARMACOPHORE_FEATURES>
6
1 1 acceptor
1 2 acceptor
1 3 donor
1 4 donor
1 9 hydrophobe
6 3 4 6 8 10 11 rings

> <PUBCHEM_SHAPE_FINGERPRINT>
1 1 18338232786139060548
10980938 120 18412262869667001985
12346645 6 18413107281543323197
12932764 1 18411422812976936853
15501101 241 18261115157943504869
15775835 57 18058734744331109617
161256 15 18335138661375911676
16945 1 18411125944484028732
170605 34 18059302087898840301
17841504 4 18337392626037619899
20339313 130 18200036122963409694
20645477 70 18408877422295243639
20708731 107 18261121763518849094
20871998 184 17552906339802160366
20871998 22 18054511309541559198
21040471 1 17977941620631142900
2748010 2 17979898442111719702
3071541 250 18267875982202782982
528862 383 18410569604311273979
54173680 148 17545882629247834450
581208 293 18337386145100677711
7364860 26 18413671309681319702
81228 2 17331389875342348808

> <PUBCHEM_SHAPE_MULTIPOLES>
214.39
5.29
2.28
0.72
6.28
0.06
0.02
-1.72
-0.89
-2.94
-0.18
0.2
-0.04
0.11

> <PUBCHEM_SHAPE_SELFOVERLAP>
419.47

> <PUBCHEM_SHAPE_VOLUME>
130.4

> <RelativeEnergy>
0

> <StereoisomerIndex>
1

> <TautomerIndex>
2

> <POSE_NUMBER>
1

> <LibDockScore>
81.3226

> <HotSpots>
7.01,13.87,1.54,A,79,1
6.41,13.87,-3.46,P,68,2
5.81,8.67,-0.66,A,61,7

> <-In-Situ Starting Energy>
-383.143766

> <-In-Situ Final Energy>
-10.0718181

> <In-Situ Gradient>
0.0008509266138

$$$$
66160
  SciTegic09142310043D

 26 27  0  0  0  0            999 V2000
    4.1504    1.9947    0.9514 O   0  0  0  1  0  0
    7.5969   -1.2380    0.0413 O   0  0  0  1  0  0
    6.1345   -0.2867    4.3905 O   0  0  0  1  0  0
    5.4510    1.1569    2.6323 N   0  0  0  1  0  0
    6.9500   -0.5906    2.2258 N   0  0  0  1  0  0
    6.1148    0.7302    0.2641 C   0  0  2  1  0  0
    6.9395    1.7389   -0.5079 C   0  0  0  1  0  0
    5.2075    0.0970   -0.7984 C   0  0  0  1  0  0
    5.1630    1.3844    1.3179 C   0  0  0  1  0  0
    6.9704   -0.3976    0.8955 C   0  0  0  1  0  0
    6.7586    3.1096   -0.3459 C   0  0  0  1  0  0
    7.6856    1.3006   -1.6043 C   0  0  0  1  0  0
    6.2041    0.1242    3.0969 C   0  0  0  1  0  0
    7.1879    3.9927   -1.3178 C   0  0  0  1  0  0
    8.1335    2.1840   -2.5674 C   0  0  0  1  0  0
    7.8845    3.5315   -2.4226 C   0  0  0  1  0  0
    7.8671   -2.0557    0.4493 H   0  0
    6.2613    0.3647    5.0846 H   0  0
    5.7569   -0.4225   -1.5806 H   0  0
    4.5649    0.8284   -1.2905 H   0  0
    4.5990   -0.6456   -0.3409 H   0  0
    6.2188    3.5169    0.4910 H   0  0
    7.8590    0.2477   -1.7668 H   0  0
    6.9823    5.0479   -1.2188 H   0  0
    8.6595    1.8184   -3.4357 H   0  0
    8.2305    4.2257   -3.1720 H   0  0
  1  9  2  0
  2 10  1  0
  3 13  1  0
  4  9  1  0
  4 13  2  0
  5 10  2  0
  5 13  1  0
  6  7  1  0
  6  8  1  0
  6  9  1  0
  6 10  1  0
  7 11  2  0
  7 12  1  0
 11 14  1  0
 12 15  2  0
 14 16  2  0
 15 16  1  0
  2 17  1  0
  3 18  1  0
  8 19  1  0
  8 20  1  0
  8 21  1  0
 11 22  1  0
 12 23  1  0
 14 24  1  0
 15 25  1  0
 16 26  1  0
M  END
> <Name>
66160

> <Binding Energy>
-43.3138

> <Ligand Energy>
39.019

> <Protein Energy>
-7801.1566

> <Complex Energy>
-7805.4515

> <Complex Entropy>
-31.4774

> <Protein Entropy>
-31.4717

> <Ligand Entropy>
-18.3904

> <Entropic Energy>
18.3847

> <AbsoluteEnergy>
30.7374

> <ConfNumber>
1

> <Ionization pH>
7.73_P

> <IonizationIndex>
1

> <MOL_NUMBER>
285

> <NumberOfIonizations>
2

> <NumberOfStereoisomers>
2

> <NumberOfTautomers>
8

> <PUBCHEM_ATOM_DEF_STEREO_COUNT>
0

> <PUBCHEM_ATOM_UDEF_STEREO_COUNT>
0

> <PUBCHEM_BOND_DEF_STEREO_COUNT>
0

> <PUBCHEM_BOND_UDEF_STEREO_COUNT>
0

> <PUBCHEM_CACTVS_TAUTO_COUNT>
5

> <PUBCHEM_COMPONENT_COUNT>
1

> <PUBCHEM_COMPOUND_CID>
66160

> <PUBCHEM_CONFORMER_DIVERSEORDER>
1
2

> <PUBCHEM_CONFORMER_ID>
1027000000001

> <PUBCHEM_CONFORMER_RMSD>
0.6

> <PUBCHEM_COORDINATE_TYPE>
2
5
10

> <PUBCHEM_EFFECTIVE_ROTOR_COUNT>
1.6

> <PUBCHEM_FEATURE_SELFOVERLAP>
35.563

> <PUBCHEM_HEAVY_ATOM_COUNT>
16

> <PUBCHEM_ISOTOPIC_ATOM_COUNT>
0

> <PUBCHEM_MMFF94_ENERGY>
52.916

> <PUBCHEM_MMFF94_PARTIAL_CHARGES>
22
1 -0.57
10 0.57
11 -0.15
12 -0.15
13 0.69
14 -0.15
15 -0.15
16 -0.15
2 -0.57
20 0.37
21 0.37
22 0.15
23 0.15
24 0.15
25 0.15
26 0.15
3 -0.57
4 -0.49
5 -0.49
6 0.27
7 -0.14
9 0.57

> <PUBCHEM_PHARMACOPHORE_FEATURES>
7
1 1 acceptor
1 2 acceptor
1 3 acceptor
1 4 donor
1 5 donor
6 4 5 6 9 10 13 rings
6 7 11 12 14 15 16 rings

> <PUBCHEM_SHAPE_FINGERPRINT>
10219947 1 16298383569592143854
107287 299 17132115719332472413
11031198 65 16343703201380083305
11471102 22 15864063278249491740
12138202 97 17489306459497692974
12326174 3 16879372024937789151
12423570 1 13560188725625627062
12491281 212 18336551615674988522
13839132 238 18201443540780603885
14787075 74 17609778965116335731
14817 1 11973897779384531838
15219456 202 17703800197140249013
15309172 13 16587738767904038000
15557651 10 17131538531214441602
15775835 57 18335138691398660097
16945 1 18198340847715656062
17357779 13 15407763882906938381
18186145 218 17346053211328588220
21069387 34 12829778495929095185
21524375 3 18335421287662365872
21947302 44 17775295923714821716
22802520 49 17487922024192579949
23236772 104 18333726948923341249
23402539 116 18201710812205436860
23419403 2 16769062571598710983
23557571 272 17987246692963191815
25 1 15913334601729231670
305870 269 18410293566852967254
3060560 45 15266760140670249557
3323516 105 14764055830985494845
430814 3 18411125944578948282
528886 8 14979956986240068750
549884 4 13470395669644574017
7364860 26 18126288536593374103
77492 1 17968372441753104687
81228 2 15908217612147741143

> <PUBCHEM_SHAPE_MULTIPOLES>
301.7
4.91
1.79
1.52
1.43
0.18
-0.12
-2.66
0.26
0.16
0.05
-0.97
0.52
-0.04

> <PUBCHEM_SHAPE_SELFOVERLAP>
656.004

> <PUBCHEM_SHAPE_VOLUME>
163.1

> <RelativeEnergy>
0

> <StereoisomerIndex>
2

> <TautomerIndex>
7

> <POSE_NUMBER>
1

> <LibDockScore>
89.3236

> <HotSpots>
6.21,0.27,3.35,A,87,13
7.61,2.87,-1.05,A,58,14
7.21,1.27,-2.85,A,46,15

> <-In-Situ Starting Energy>
-168.86288

> <-In-Situ Final Energy>
21.7234064

> <In-Situ Gradient>
0.000816438544

$$$$
667493
  SciTegic09142310043D

 14 14  0  0  0  0            999 V2000
    7.8787    3.3416    3.0207 S   0  0  0  1  0  0
    3.8337    1.9540    0.5416 O   0  0  0  1  0  0
    7.5874    1.0978    1.6466 N   0  0  0  1  0  0
    5.7604    2.5396    1.6471 N   0  5  0  1  0  0
    6.8648    0.1658    0.7626 C   0  0  0  1  0  0
    5.6309    0.4913    0.3415 C   0  0  0  1  0  0
    7.0298    2.2659    2.0492 C   0  0  0  1  0  0
    5.0124    1.7375    0.8485 C   0  0  0  1  0  0
    7.4910   -1.1548    0.4110 C   0  0  0  1  0  0
    8.5232    0.8781    1.9261 H   0  0
    5.0935   -0.1422   -0.3386 H   0  0
    7.8360   -1.6664    1.3102 H   0  0
    8.3448   -1.0039   -0.2470 H   0  0
    6.7815   -1.8111   -0.0951 H   0  0
  1  7  2  0
  2  8  2  0
  3  5  1  0
  3  7  1  0
  4  7  1  0
  4  8  1  0
  5  6  2  0
  5  9  1  0
  6  8  1  0
  3 10  1  0
  6 11  1  0
  9 12  1  0
  9 13  1  0
  9 14  1  0
M  CHG  1   4  -1
M  END
> <Name>
667493

> <Binding Energy>
-48.1479

> <Ligand Energy>
8.7704

> <Protein Energy>
-7801.1566

> <Complex Energy>
-7840.5342

> <Complex Entropy>
-31.4754

> <Protein Entropy>
-31.4717

> <Ligand Entropy>
-17.2529

> <Entropic Energy>
17.2492

> <AbsoluteEnergy>
10.2988

> <ConfNumber>
1

> <Ionization pH>
7.52_D

> <IonizationIndex>
2

> <MOL_NUMBER>
300

> <NumberOfIonizations>
2

> <NumberOfStereoisomers>
1

> <NumberOfTautomers>
3

> <PUBCHEM_ATOM_DEF_STEREO_COUNT>
0

> <PUBCHEM_ATOM_UDEF_STEREO_COUNT>
0

> <PUBCHEM_BOND_DEF_STEREO_COUNT>
0

> <PUBCHEM_BOND_UDEF_STEREO_COUNT>
0

> <PUBCHEM_CACTVS_TAUTO_COUNT>
6

> <PUBCHEM_COMPONENT_COUNT>
1

> <PUBCHEM_COMPOUND_CID>
667493

> <PUBCHEM_CONFORMER_DIVERSEORDER>
1

> <PUBCHEM_CONFORMER_ID>
000A2F6500000001

> <PUBCHEM_CONFORMER_RMSD>
0.4

> <PUBCHEM_COORDINATE_TYPE>
2
5
10

> <PUBCHEM_EFFECTIVE_ROTOR_COUNT>
0

> <PUBCHEM_FEATURE_SELFOVERLAP>
25.413

> <PUBCHEM_HEAVY_ATOM_COUNT>
9

> <PUBCHEM_ISOTOPIC_ATOM_COUNT>
0

> <PUBCHEM_MMFF94_ENERGY>
12.5182

> <PUBCHEM_MMFF94_PARTIAL_CHARGES>
12
1 -0.38
10 0.37
11 0.15
15 0.37
2 -0.57
3 -0.54
4 -0.49
5 -0.03
6 -0.14
7 0.5
8 0.62
9 0.14

> <PUBCHEM_PHARMACOPHORE_FEATURES>
5
1 1 acceptor
1 2 acceptor
1 3 donor
1 4 donor
6 3 4 5 6 7 8 rings

> <PUBCHEM_SHAPE_FINGERPRINT>
1 1 18410009944329201349
16945 1 18338517434948890149
18185500 45 17979356356740280439
21040471 1 18194402427214415296
23552423 10 18411981321802357005
23552449 1 17114661276957541324
241688 4 17546165207851656104
2748010 2 18265622154636766277
29004967 10 18192432970092463163

> <PUBCHEM_SHAPE_MULTIPOLES>
173.23
3
2.37
0.6
2.24
0.93
0
-1.58
0
-1.35
0
0.03
-0.03
0

> <PUBCHEM_SHAPE_SELFOVERLAP>
342.539

> <PUBCHEM_SHAPE_VOLUME>
104.8

> <RelativeEnergy>
0

> <StereoisomerIndex>
1

> <TautomerIndex>
1

> <POSE_NUMBER>
1

> <LibDockScore>
57.1001

> <HotSpots>
9.21,2.67,2.54,A,84,1
6.21,0.27,3.35,A,87,8
6.61,-0.93,-0.06,A,65,9

> <-In-Situ Starting Energy>
-52.7465313

> <-In-Situ Final Energy>
29.2175975

> <In-Situ Gradient>
0.000783715446

$$$$
68066
  SciTegic09142310043D

 45 46  0  0  0  0            999 V2000
   13.9826    3.8974   -9.2734 O   0  0  0  1  0  0
   11.8825    4.3081   -5.0077 O   0  0  0  1  0  0
   14.2769    2.0990  -11.1253 O   0  0  0  1  0  0
    9.8476    7.7185   -6.1165 O   0  0  0  1  0  0
   17.6094    2.5448  -14.2580 O   0  0  0  1  0  0
   15.2010    5.8545   -9.4552 O   0  0  0  1  0  0
    9.8720    5.8828   -4.8971 O   0  0  0  1  0  0
   16.6158    0.1677  -13.9146 O   0  0  0  1  0  0
   12.8885    4.0805   -7.1328 C   0  0  0  1  0  0
   13.0795    4.5218   -8.4303 C   0  0  0  1  0  0
   11.6544    6.4346   -8.0334 C   0  0  0  1  0  0
   11.3753    5.9586   -6.7396 C   0  0  0  1  0  0
   12.0351    4.7954   -6.2971 C   0  0  0  1  0  0
   12.4429    5.6674   -8.8731 C   0  0  0  1  0  0
   15.5314    4.1233  -11.0634 C   0  0  0  1  0  0
   16.5379    4.9009  -11.8417 C   0  0  0  1  0  0
   15.2019    2.7337  -11.5378 C   0  0  0  1  0  0
   13.6147    2.8607   -6.6284 C   0  0  0  1  0  0
   11.1883    7.7396   -8.6093 C   0  0  0  1  0  0
   14.9173    4.6137   -9.9576 C   0  0  0  1  0  0
   16.0288    2.1272  -12.6146 C   0  0  0  1  0  0
   17.2001    4.3793  -12.8960 C   0  0  0  1  0  0
   17.0032    2.9849  -13.3248 C   0  0  0  1  0  0
   10.3237    6.5105   -5.8492 C   0  0  0  1  0  0
   16.7657    6.3520  -11.4814 C   0  0  0  1  0  0
   15.9041    0.8226  -12.9409 C   0  0  0  1  0  0
    8.9481    8.2629   -5.1442 C   0  0  0  1  0  0
   11.2400    4.8238   -4.5297 H   0  0
   14.7646    5.9957   -8.6283 H   0  0
   17.1911    0.7835  -14.3690 H   0  0
   12.5982    5.9905   -9.8944 H   0  0
   14.5457    3.1554   -6.1443 H   0  0
   13.8472    2.1738   -7.4427 H   0  0
   13.0063    2.3216   -5.9018 H   0  0
   11.0353    8.4814   -7.8554 H   0  0
   10.2960    7.6271   -9.2254 H   0  0
   11.9965    8.1632   -9.1991 H   0  0
   17.9079    4.9699  -13.4465 H   0  0
   17.2395    6.4385  -10.5042 H   0  0
   15.8268    6.9050  -11.4635 H   0  0
   17.4116    6.8480  -12.2050 H   0  0
   15.2020    0.1898  -12.4265 H   0  0
    8.9397    9.3464   -5.2292 H   0  0
    9.2635    8.0281   -4.1245 H   0  0
    7.9451    7.8679   -5.3064 H   0  0
  1 10  1  0
  1 20  1  0
  2 13  1  0
  3 17  2  0
  4 24  1  0
  4 27  1  0
  5 23  2  0
  6 20  1  0
  7 24  2  0
  8 26  1  0
  9 10  2  0
  9 13  1  0
  9 18  1  0
 10 14  1  0
 11 12  1  0
 11 14  2  0
 11 19  1  0
 12 13  2  0
 12 24  1  0
 15 16  1  0
 15 17  1  0
 15 20  2  0
 16 22  2  0
 16 25  1  0
 17 21  1  0
 21 23  1  0
 21 26  2  0
 22 23  1  0
  2 28  1  0
  6 29  1  0
  8 30  1  0
 14 31  1  0
 18 32  1  0
 18 33  1  0
 18 34  1  0
 19 35  1  0
 19 36  1  0
 19 37  1  0
 22 38  1  0
 25 39  1  0
 25 40  1  0
 25 41  1  0
 26 42  1  0
 27 43  1  0
 27 44  1  0
 27 45  1  0
M  END
> <Name>
68066

> <Binding Energy>
-50.9553

> <Ligand Energy>
84.8549

> <Protein Energy>
-7801.1566

> <Complex Energy>
-7767.2571

> <Complex Entropy>
-31.485

> <Protein Entropy>
-31.4717

> <Ligand Entropy>
-20.0297

> <Entropic Energy>
20.0165

> <AbsoluteEnergy>
58.9527

> <ConfNumber>
2

> <Ionization pH>
8.46_PPP

> <IonizationIndex>
1

> <MOL_NUMBER>
325

> <NumberOfIonizations>
2

> <NumberOfStereoisomers>
1

> <NumberOfTautomers>
10

> <PUBCHEM_ATOM_DEF_STEREO_COUNT>
0

> <PUBCHEM_ATOM_UDEF_STEREO_COUNT>
0

> <PUBCHEM_BOND_DEF_STEREO_COUNT>
0

> <PUBCHEM_BOND_UDEF_STEREO_COUNT>
0

> <PUBCHEM_CACTVS_TAUTO_COUNT>
468

> <PUBCHEM_COMPONENT_COUNT>
1

> <PUBCHEM_COMPOUND_CID>
68066

> <PUBCHEM_CONFORMER_DIVERSEORDER>
1
52
75
84
40
39
88
41
61
54
8
60
67
94
70
90
23
19
9
47
31
71
55
78
43
81
11
34
59
58
83
50
64
92
24
45
18
72
87
82
65
73
48
44
35
57
17
12
38
80
10
29
46
21
20
3
25
85
79
16
74
51
86
42
56
66
4
93
2
91
69
63
49
33
32
89
6
68
14
7
53
77
5
76
36
22
62
30
13
27
26
28
37
15

> <PUBCHEM_CONFORMER_ID>
000109E200000001

> <PUBCHEM_CONFORMER_RMSD>
0.8

> <PUBCHEM_COORDINATE_TYPE>
2
5
10

> <PUBCHEM_EFFECTIVE_ROTOR_COUNT>
6

> <PUBCHEM_FEATURE_SELFOVERLAP>
40.597

> <PUBCHEM_HEAVY_ATOM_COUNT>
27

> <PUBCHEM_ISOTOPIC_ATOM_COUNT>
0

> <PUBCHEM_MMFF94_ENERGY>
99.4541

> <PUBCHEM_MMFF94_PARTIAL_CHARGES>
33
1 -0.23
10 0.08
11 -0.14
12 0.09
13 0.08
14 -0.15
15 0.09
16 -0.14
17 0.08
18 0.14
19 0.14
2 -0.53
20 0.63
21 0.09
22 -0.15
23 0.08
24 0.63
25 0.14
26 0.42
27 0.28
28 0.15
3 -0.53
35 0.15
39 0.45
4 -0.43
40 0.06
41 0.45
42 0.45
5 -0.53
6 -0.57
7 -0.57
8 -0.57
9 -0.14

> <PUBCHEM_PHARMACOPHORE_FEATURES>
8
1 2 donor
1 3 donor
1 5 donor
1 6 acceptor
1 7 acceptor
1 8 acceptor
6 15 16 17 21 22 23 rings
6 9 10 11 12 13 14 rings

> <PUBCHEM_SHAPE_FINGERPRINT>
10 15 18342449379357237624
10595046 47 18334579031711758820
11315181 36 18260547835892970877
11524674 6 16917350355120877263
11578080 2 16700035296664387442
11646440 116 17846779616097045152
11963148 33 18335132107615553578
12107183 9 17690845558074103009
12166972 35 17530966912235573460
12236239 1 18410012147594572492
13533116 47 16805590448575992248
13782708 43 17894910698763721130
14251764 18 17894630366743851760
14341114 176 18340492157763810645
14849402 71 18338233890616562472
15196674 1 18410856538655901299
15927050 60 17548140390376504301
17349148 13 17240205438762321341
17844677 252 18412550928739322473
1813 80 17312822684577503389
18222031 100 16878219852636882404
18608769 82 18412543240636657738
18681886 176 18341045298576489160
19377110 9 18041273279826672346
21033648 29 16701440287239328016
21130935 74 18411978027847940666
21267235 1 18411425028631506486
21315759 40 17676205762998609394
21315763 129 18408602556819624528
2297311 6 18342465837260627741
23522609 53 17896627032067569148
23559900 14 18411411813603050097
335352 9 18411136944691839422
34797466 226 17917721235908198108
350125 39 18410573994073961460
3545911 37 18412825763527541536
4073 2 18186808010122644867
4214541 1 18411981338935019657
4325135 7 18333733511348701702
5104073 3 18341609252934982179
59755656 215 18411983537910685710
59755656 520 17022903462639085499
77779 3 18411700967785853673
9996256 80 18408321081768736130

> <PUBCHEM_SHAPE_MULTIPOLES>
508.69
16.5
2.49
0.86
3.78
0.35
-0.17
-2.38
2.53
-1.3
0.05
0.49
0.03
0.07

> <PUBCHEM_SHAPE_SELFOVERLAP>
1104.359

> <PUBCHEM_SHAPE_VOLUME>
278.2

> <RelativeEnergy>
0.0423669

> <StereoisomerIndex>
1

> <TautomerIndex>
7

> <POSE_NUMBER>
1

> <LibDockScore>
59.2632

> <HotSpots>
8.81,8.07,-6.66,P,48,4
10.81,8.27,-8.46,A,35,19
16.61,6.47,-11.46,A,30,25

> <-In-Situ Starting Energy>
-1769.53616

> <-In-Situ Final Energy>
-8.50910717

> <In-Situ Gradient>
0.0009513507382

$$$$
68214
  SciTegic09142310043D

 36 36  0  0  0  0            999 V2000
    7.3186    4.4650   -0.2126 O   0  0  0  1  0  0
    7.9551    2.6705   -2.4354 O   0  0  0  1  0  0
    5.8002    3.7572    2.4771 O   0  0  0  1  0  0
    7.5146    2.5081    0.9341 N   0  0  0  1  0  0
    7.8942    3.0452    2.0036 N   0  0  0  1  0  0
    5.9876    1.7575   -1.7640 N   0  0  0  1  0  0
    7.3268    1.1635    0.9844 C   0  0  0  1  0  0
    7.3068    3.2423   -0.2115 C   0  0  0  1  0  0
    6.4984    0.6380    1.9626 C   0  0  0  1  0  0
    8.0065    0.3111    0.1300 C   0  0  0  1  0  0
    9.2668    2.7673    2.4787 C   0  0  0  1  0  0
    7.0888    2.5462   -1.5736 C   0  0  0  1  0  0
    6.9959    3.7796    2.7263 C   0  0  0  1  0  0
    6.4137   -0.7257    2.1182 C   0  0  0  1  0  0
    7.8835   -1.0541    0.2626 C   0  0  0  1  0  0
    7.0850   -1.5759    1.2473 C   0  0  0  1  0  0
    7.5022    4.6293    3.8966 C   0  0  0  1  0  0
    5.9965    0.8221   -2.8962 C   0  0  0  1  0  0
    4.7945    1.7814   -0.9089 C   0  0  0  1  0  0
    5.9185    1.2729    2.6141 H   0  0
    8.6410    0.7076   -0.6426 H   0  0
    9.9848    3.4139    1.9888 H   0  0
    9.5275    1.7402    2.2360 H   0  0
    9.3589    2.8901    3.5520 H   0  0
    5.8225   -1.0999    2.9369 H   0  0
    8.4726   -1.7269   -0.3364 H   0  0
    7.0300   -2.6525    1.3120 H   0  0
    7.2377    4.1691    4.8434 H   0  0
    7.0292    5.6104    3.8564 H   0  0
    8.5743    4.7736    3.8875 H   0  0
    6.9374    0.2705   -2.9350 H   0  0
    5.8734    1.3559   -3.8376 H   0  0
    5.1953    0.0894   -2.8020 H   0  0
    3.9315    2.0435   -1.5211 H   0  0
    4.8580    2.5101   -0.1017 H   0  0
    4.6406    0.7939   -0.4744 H   0  0
  1  8  2  0
  2 12  2  0
  3 13  2  0
  4  5  1  0
  4  7  1  0
  4  8  1  0
  5 11  1  0
  5 13  1  0
  6 12  1  0
  6 18  1  0
  6 19  1  0
  7  9  2  0
  7 10  1  0
  8 12  1  0
  9 14  1  0
 10 15  2  0
 13 17  1  0
 14 16  2  0
 15 16  1  0
  9 20  1  0
 10 21  1  0
 11 22  1  0
 11 23  1  0
 11 24  1  0
 14 25  1  0
 15 26  1  0
 16 27  1  0
 17 28  1  0
 17 29  1  0
 17 30  1  0
 18 31  1  0
 18 32  1  0
 18 33  1  0
 19 34  1  0
 19 35  1  0
 19 36  1  0
M  END
> <Name>
68214

> <Binding Energy>
-79.5558

> <Ligand Energy>
45.4537

> <Protein Energy>
-7801.1566

> <Complex Energy>
-7835.2588

> <Complex Entropy>
-31.4787

> <Protein Entropy>
-31.4717

> <Ligand Entropy>
-18.8338

> <Entropic Energy>
18.8268

> <AbsoluteEnergy>
60.6787

> <ConfNumber>
5

> <Ionization pH>
7.5

> <IonizationIndex>
1

> <MOL_NUMBER>
342

> <NumberOfIonizations>
1

> <NumberOfStereoisomers>
1

> <NumberOfTautomers>
1

> <PUBCHEM_ATOM_DEF_STEREO_COUNT>
0

> <PUBCHEM_ATOM_UDEF_STEREO_COUNT>
0

> <PUBCHEM_BOND_DEF_STEREO_COUNT>
0

> <PUBCHEM_BOND_UDEF_STEREO_COUNT>
0

> <PUBCHEM_CACTVS_TAUTO_COUNT>
1

> <PUBCHEM_COMPONENT_COUNT>
1

> <PUBCHEM_COMPOUND_CID>
68214

> <PUBCHEM_CONFORMER_DIVERSEORDER>
1
42
39
3
8
28
30
6
19
26
33
11
9
41
12
21
13
45
38
29
17
14
25
23
44
15
24
40
16
2
37
4
35
22
31
5
36
20
32
7
18
34
27
43
10

> <PUBCHEM_CONFORMER_ID>
00010A7600000001

> <PUBCHEM_CONFORMER_RMSD>
0.8

> <PUBCHEM_COORDINATE_TYPE>
2
5
10

> <PUBCHEM_EFFECTIVE_ROTOR_COUNT>
6

> <PUBCHEM_FEATURE_SELFOVERLAP>
20.299

> <PUBCHEM_HEAVY_ATOM_COUNT>
19

> <PUBCHEM_ISOTOPIC_ATOM_COUNT>
0

> <PUBCHEM_MMFF94_ENERGY>
59.5792

> <PUBCHEM_MMFF94_PARTIAL_CHARGES>
24
1 -0.57
10 -0.15
11 0.3
12 0.63
13 0.57
14 -0.15
15 -0.15
16 -0.15
17 0.06
18 0.3
19 0.3
2 -0.57
20 0.15
21 0.15
25 0.15
26 0.15
27 0.15
3 -0.57
4 -0.18
5 -0.36
6 -0.66
7 0.12
8 0.63
9 -0.15

> <PUBCHEM_PHARMACOPHORE_FEATURES>
4
1 1 acceptor
1 2 acceptor
1 3 acceptor
6 7 9 10 14 15 16 rings

> <PUBCHEM_SHAPE_FINGERPRINT>
12788726 201 17540815422763925970
13538477 17 18045770445672082776
15163728 17 18042422264903695612
15490181 8 18408890637223726635
16945 1 18266467511775326431
1741750 31 18265050417581554288
19765921 60 18343310244852388097
20600515 1 16763375553909578331
20645476 183 18262796405616774148
20905425 154 17915175706890310773
21501502 16 17986101925613157821
21524375 3 18408879659213192076
2255824 54 18194121815811091263
22907989 373 17905343066582004485
23419403 2 14247377656114288553
23557571 272 17621030297926945696
25 1 18342744004880314257
298252 57 18260550069202177096
3060560 45 18335420157969929284
474 4 18335984181760041697
57177213 63 18412543176481290333
6138700 20 18196943163202171174
7364860 26 18056189177275779711
81228 2 17546430637131450035
81539 233 18336822001003955959
8272917 22 18263643966152671881
9999458 23 18040711424842179462

> <PUBCHEM_SHAPE_MULTIPOLES>
358.46
5.76
3.16
1.39
1.75
2.52
0.06
-4.34
-1.27
-1.09
0.04
-0.32
0.19
-0.56

> <PUBCHEM_SHAPE_SELFOVERLAP>
735.74

> <PUBCHEM_SHAPE_VOLUME>
206.1

> <RelativeEnergy>
3.2455

> <StereoisomerIndex>
1

> <TautomerIndex>
1

> <POSE_NUMBER>
1

> <LibDockScore>
61.932

> <HotSpots>
9.21,2.67,2.54,A,84,11
7.61,-2.13,0.94,A,72,16
7.81,4.27,4.14,A,90,17

> <-In-Situ Starting Energy>
-197.996408

> <-In-Situ Final Energy>
-3.10044033

> <In-Situ Gradient>
0.0009896398299

$$$$
68415
  SciTegic09142310043D

 35 35  0  0  0  0            999 V2000
    7.4739    3.6689   -0.3161 O   0  0  0  1  0  0
    5.8807   -0.8829   -0.8368 O   0  0  0  1  0  0
    3.1941    2.8811   -1.5881 O   0  0  0  1  0  0
    5.3788    3.1633   -0.9266 N   0  0  0  1  0  0
    4.5199    1.0123   -1.1770 N   0  0  0  1  0  0
    7.3178    0.9429    1.0420 C   0  0  0  1  0  0
    6.8870    1.3125   -0.4308 C   0  0  2  1  0  0
    6.1233    1.1034    2.0416 C   0  0  0  1  0  0
    7.9135    1.0406   -1.5579 C   0  0  0  1  0  0
    7.8402   -0.5142    1.0948 C   0  0  0  1  0  0
    8.4493    1.8882    1.5176 C   0  0  0  1  0  0
    6.6081    2.8316   -0.5378 C   0  0  0  1  0  0
    5.6771    0.4432   -0.8319 C   0  0  0  1  0  0
    6.0302    0.0183    3.1286 C   0  0  0  1  0  0
    7.4796    1.5001   -2.9312 C   0  0  0  1  0  0
    4.3590    2.3454   -1.2187 C   0  0  0  1  0  0
    7.1192    0.6762   -3.9298 C   0  0  0  1  0  0
    5.3845   -1.3202   -1.5177 H   0  0
    3.3886    3.5289   -2.2649 H   0  0
    6.1301    2.0941    2.4937 H   0  0
    5.1686    1.0920    1.5252 H   0  0
    8.8313    1.5613   -1.3137 H   0  0
    8.1614   -0.0150   -1.6226 H   0  0
    8.4633   -0.7525    0.2435 H   0  0
    7.0477   -1.2589    1.0860 H   0  0
    8.4232   -0.7044    1.9936 H   0  0
    8.0724    2.8149    1.9508 H   0  0
    9.0748    2.1994    0.6929 H   0  0
    9.1139    1.4433    2.2435 H   0  0
    5.3245    0.2802    3.9163 H   0  0
    6.9824   -0.2319    3.5774 H   0  0
    5.7006   -0.9162    2.6958 H   0  0
    7.5670    2.5568   -3.1034 H   0  0
    7.0457   -0.3783   -3.7718 H   0  0
    6.8779    1.0175   -4.9163 H   0  0
  1 12  2  0
  2 13  1  0
  3 16  1  0
  4 12  1  0
  4 16  2  0
  5 13  2  0
  5 16  1  0
  6  7  1  0
  6  8  1  0
  6 10  1  0
  6 11  1  0
  7  9  1  0
  7 12  1  0
  7 13  1  0
  8 14  1  0
  9 15  1  0
 15 17  2  0
  2 18  1  0
  3 19  1  0
  8 20  1  0
  8 21  1  0
  9 22  1  0
  9 23  1  0
 10 24  1  0
 10 25  1  0
 10 26  1  0
 11 27  1  0
 11 28  1  0
 11 29  1  0
 14 30  1  0
 14 31  1  0
 14 32  1  0
 15 33  1  0
 17 34  1  0
 17 35  1  0
M  END
> <Name>
68415

> <Binding Energy>
-52.9636

> <Ligand Energy>
62.5294

> <Protein Energy>
-7801.1566

> <Complex Energy>
-7791.5909

> <Complex Entropy>
-31.4779

> <Protein Entropy>
-31.4717

> <Ligand Entropy>
-18.5454

> <Entropic Energy>
18.5392

> <AbsoluteEnergy>
99.6493

> <ConfNumber>
9

> <Ionization pH>
7.5

> <IonizationIndex>
1

> <MOL_NUMBER>
350

> <NumberOfIonizations>
1

> <NumberOfStereoisomers>
2

> <NumberOfTautomers>
8

> <PUBCHEM_ATOM_DEF_STEREO_COUNT>
0

> <PUBCHEM_ATOM_UDEF_STEREO_COUNT>
0

> <PUBCHEM_BOND_DEF_STEREO_COUNT>
0

> <PUBCHEM_BOND_UDEF_STEREO_COUNT>
0

> <PUBCHEM_CACTVS_TAUTO_COUNT>
5

> <PUBCHEM_COMPONENT_COUNT>
1

> <PUBCHEM_COMPOUND_CID>
68415

> <PUBCHEM_CONFORMER_DIVERSEORDER>
1
4
2
5
3
6

> <PUBCHEM_CONFORMER_ID>
00010B3F00000001

> <PUBCHEM_CONFORMER_RMSD>
0.6

> <PUBCHEM_COORDINATE_TYPE>
2
5
10

> <PUBCHEM_EFFECTIVE_ROTOR_COUNT>
4.6

> <PUBCHEM_FEATURE_SELFOVERLAP>
45.719

> <PUBCHEM_HEAVY_ATOM_COUNT>
17

> <PUBCHEM_ISOTOPIC_ATOM_COUNT>
0

> <PUBCHEM_MMFF94_ENERGY>
67.1

> <PUBCHEM_MMFF94_PARTIAL_CHARGES>
17
1 -0.57
12 0.57
13 0.57
15 -0.29
16 0.69
17 -0.3
2 -0.57
3 -0.57
31 0.37
32 0.37
33 0.15
34 0.15
35 0.15
4 -0.49
5 -0.49
7 0.12
9 0.14

> <PUBCHEM_PHARMACOPHORE_FEATURES>
9
1 1 acceptor
1 14 hydrophobe
1 17 hydrophobe
1 2 acceptor
1 3 acceptor
1 4 donor
1 5 donor
3 6 10 11 hydrophobe
6 4 5 7 12 13 16 rings

> <PUBCHEM_SHAPE_FINGERPRINT>
1 1 18339637966104512241
10702982 57 17984690383920172598
10863032 1 18199466743359329266
10948715 1 18199748226873428472
11578080 2 17461154357537465804
12326174 3 18200333068501660023
12423570 1 10878836802852436922
12592029 89 18341330084440053082
13024252 1 14203887642051196392
14713566 1 16844448417477405740
14817 1 14158235588331831092
15219459 28 17896330288138553979
15881359 60 16766780140003988374
15906896 17 17549825933116627430
16945 1 18270382984351187801
20511035 2 17027135650308389777
22344851 12 11126689680469570880
23419403 2 17897143746428289350
2748010 2 18043234761315564445
298252 57 17201926040104293469
3250762 1 18046893888578622556
5845 1 17408836235633584758
68250623 7 18196935465750033001
68419 9 17270277154854312063
7364860 26 18412260623552061035
81228 2 17333924258091908409
81539 233 18336820983054671269

> <PUBCHEM_SHAPE_MULTIPOLES>
322.28
3.65
2.67
1.66
2.2
1.43
-0.37
-1.22
0.64
-2
0.19
0.24
-0.02
0.1

> <PUBCHEM_SHAPE_SELFOVERLAP>
667.875

> <PUBCHEM_SHAPE_VOLUME>
181.4

> <RelativeEnergy>
17.4704

> <StereoisomerIndex>
2

> <TautomerIndex>
7

> <POSE_NUMBER>
1

> <LibDockScore>
87.582

> <HotSpots>
3.21,3.27,-1.25,P,79,3
6.01,1.67,2.54,A,83,14
7.21,1.27,-2.85,A,46,15

> <-In-Situ Starting Energy>
-254.047923

> <-In-Situ Final Energy>
5.69985259

> <In-Situ Gradient>
0.0008806885018

$$$$
68437
  SciTegic09142310043D

 24 25  0  0  0  0            999 V2000
    8.0853    2.1650   -3.6094 O   0  0  0  1  0  0
    5.7708   -0.2859   -0.9151 O   0  0  0  1  0  0
    5.1076    1.1496    1.3204 O   0  0  0  1  0  0
    7.1498    0.1099   -3.6310 O   0  0  0  1  0  0
    7.4668    2.9032   -1.5763 C   0  0  0  1  0  0
    6.9715    1.6156   -1.7743 C   0  0  0  1  0  0
    8.2372    3.2986   -2.7372 C   0  0  0  1  0  0
    6.2287    1.0145   -0.7894 C   0  0  0  1  0  0
    7.2028    3.5982   -0.4336 C   0  0  0  1  0  0
    5.9422    1.7219    0.3810 C   0  0  0  1  0  0
    7.3708    1.1664   -3.0585 C   0  0  0  1  0  0
    6.4565    3.0031    0.5702 C   0  0  0  1  0  0
    6.5370   -1.1638   -0.1071 C   0  0  0  1  0  0
    5.6910    1.1462    2.6017 C   0  0  0  1  0  0
    7.8631    4.2169   -3.1760 H   0  0
    9.2792    3.4481   -2.4966 H   0  0
    7.5369    4.6141   -0.3090 H   0  0
    6.2500    3.5608    1.4705 H   0  0
    6.3143   -1.0290    0.9505 H   0  0
    7.6074   -1.0110   -0.2567 H   0  0
    6.3083   -2.1977   -0.3656 H   0  0
    5.6785    2.1538    3.0113 H   0  0
    6.7055    0.7468    2.5447 H   0  0
    5.1265    0.5090    3.2806 H   0  0
  1  7  1  0
  1 11  1  0
  2  8  1  0
  2 13  1  0
  3 10  1  0
  3 14  1  0
  4 11  2  0
  5  6  2  0
  5  7  1  0
  5  9  1  0
  6  8  1  0
  6 11  1  0
  8 10  2  0
  9 12  2  0
 10 12  1  0
  7 15  1  0
  7 16  1  0
  9 17  1  0
 12 18  1  0
 13 19  1  0
 13 20  1  0
 13 21  1  0
 14 22  1  0
 14 23  1  0
 14 24  1  0
M  END
> <Name>
68437

> <Binding Energy>
-24.6466

> <Ligand Energy>
32.0628

> <Protein Energy>
-7801.1566

> <Complex Energy>
-7793.7404

> <Complex Entropy>
-31.4768

> <Protein Entropy>
-31.4717

> <Ligand Entropy>
-18.0433

> <Entropic Energy>
18.0382

> <AbsoluteEnergy>
65.7735

> <ConfNumber>
1

> <IonizationIndex>
1

> <MOL_NUMBER>
351

> <NumberOfIonizations>
1

> <NumberOfStereoisomers>
1

> <NumberOfTautomers>
1

> <PUBCHEM_ATOM_DEF_STEREO_COUNT>
0

> <PUBCHEM_ATOM_UDEF_STEREO_COUNT>
0

> <PUBCHEM_BOND_DEF_STEREO_COUNT>
0

> <PUBCHEM_BOND_UDEF_STEREO_COUNT>
0

> <PUBCHEM_CACTVS_TAUTO_COUNT>
1

> <PUBCHEM_COMPONENT_COUNT>
1

> <PUBCHEM_COMPOUND_CID>
68437

> <PUBCHEM_CONFORMER_DIVERSEORDER>
1
2

> <PUBCHEM_CONFORMER_ID>
00010B5500000001

> <PUBCHEM_CONFORMER_RMSD>
0.6

> <PUBCHEM_COORDINATE_TYPE>
2
5
10

> <PUBCHEM_EFFECTIVE_ROTOR_COUNT>
2.4

> <PUBCHEM_FEATURE_SELFOVERLAP>
25.469

> <PUBCHEM_HEAVY_ATOM_COUNT>
14

> <PUBCHEM_ISOTOPIC_ATOM_COUNT>
0

> <PUBCHEM_MMFF94_ENERGY>
56.8567

> <PUBCHEM_MMFF94_PARTIAL_CHARGES>
16
1 -0.43
10 0.08
11 0.63
12 -0.15
13 0.28
14 0.28
17 0.15
18 0.15
2 -0.36
3 -0.36
4 -0.57
5 -0.14
6 0.09
7 0.42
8 0.08
9 -0.15

> <PUBCHEM_PHARMACOPHORE_FEATURES>
5
1 2 acceptor
1 3 acceptor
1 4 acceptor
5 1 5 6 7 11 rings
6 5 6 8 9 10 12 rings

> <PUBCHEM_SHAPE_FINGERPRINT>
10219947 1 18337679706242096379
10967382 1 18339359768119120734
11132069 177 18271801362766789371
11206711 2 18338235951229264638
11471102 20 18412260606298319375
11471102 22 18263946434876849923
12382932 28 18267301130388348387
12524768 44 18338515364642875670
13140716 1 18267020742244423354
13380535 21 18195257834544617766
13380535 76 17975965467391419053
13897977 150 18268987768366795853
15775835 57 18341338893518138672
161256 15 18410862048618562973
16945 1 18410566288744454918
17844478 74 18260275135439227643
193761 8 17835241147121172223
20588541 1 18340774831057671210
21501502 16 18120370965160012831
2334 1 17979070810155951558
23419403 2 15814467315429706482
2748010 2 18052816953496012702
5084963 1 18131344194136908346
5255222 1 18341324595561649216
528886 8 18341045328024159426
90316 7 17686017954693976264

> <PUBCHEM_SHAPE_MULTIPOLES>
264.64
4.3
2.46
0.77
0.8
0.54
-0.02
0.07
-0.85
-0.02
0.4
0.4
0.09
0.5

> <PUBCHEM_SHAPE_SELFOVERLAP>
573.506

> <PUBCHEM_SHAPE_VOLUME>
148.4

> <RelativeEnergy>
0

> <StereoisomerIndex>
1

> <TautomerIndex>
1

> <POSE_NUMBER>
1

> <LibDockScore>
64.209

> <HotSpots>
6.01,1.67,2.54,A,83,12
7.61,-2.13,0.94,A,72,13
5.81,-0.33,4.34,A,91,14

> <-In-Situ Starting Energy>
-1206.33095

> <-In-Situ Final Energy>
-4.02862137

> <In-Situ Gradient>
0.0008783078014

$$$$
71113
  SciTegic09142310043D

 27 26  0  0  0  0            999 V2000
    6.5193   11.4948   -3.8769 O   0  0  0  1  0  0
    6.9533   12.4159   -1.8823 N   0  0  0  1  0  0
    7.6088   10.1124   -2.2301 C   0  0  0  1  0  0
    8.3311    9.3175   -3.3458 C   0  0  0  1  0  0
    6.5144    9.3639   -1.5147 C   0  0  0  1  0  0
    7.4343    8.6969   -4.4070 C   0  0  0  1  0  0
    5.9936   10.1259   -0.2905 C   0  0  0  1  0  0
    6.9204   11.3781   -2.7355 C   0  0  0  1  0  0
    8.1618    7.5901   -5.1872 C   0  0  0  1  0  0
    5.0127    9.2757    0.4388 C   0  0  0  1  0  0
    6.7671   13.3518   -2.1881 H   0  0
    7.1890   12.2576   -0.9232 H   0  0
    8.3680   10.3804   -1.5010 H   0  0
    9.0848    9.9250   -3.8354 H   0  0
    8.9031    8.5079   -2.9165 H   0  0
    6.8321    8.3885   -1.2235 H   0  0
    5.7453    9.1376   -2.2331 H   0  0
    7.0715    9.4837   -5.0568 H   0  0
    6.5436    8.2944   -3.9485 H   0  0
    5.4613   11.0290   -0.5699 H   0  0
    6.8100   10.4011    0.3766 H   0  0
    8.5019    6.7959   -4.5279 H   0  0
    9.0346    7.9802   -5.7095 H   0  0
    7.5083    7.1188   -5.9176 H   0  0
    5.5010    8.3552    0.7466 H   0  0
    4.1738    9.0825   -0.2064 H   0  0
    4.5609    9.7570    1.2860 H   0  0
  1  8  2  0
  2  8  1  0
  3  4  1  0
  3  5  1  0
  3  8  1  0
  4  6  1  0
  5  7  1  0
  6  9  1  0
  7 10  1  0
  2 11  1  0
  2 12  1  0
  3 13  1  0
  4 14  1  0
  4 15  1  0
  5 16  1  0
  5 17  1  0
  6 18  1  0
  6 19  1  0
  7 20  1  0
  7 21  1  0
  9 22  1  0
  9 23  1  0
  9 24  1  0
 10 25  1  0
 10 26  1  0
 10 27  1  0
M  END
> <Name>
71113

> <Binding Energy>
-17.0793

> <Ligand Energy>
-2.6938

> <Protein Energy>
-7801.1566

> <Complex Energy>
-7820.9297

> <Complex Entropy>
-31.476

> <Protein Entropy>
-31.4717

> <Ligand Entropy>
-17.4815

> <Entropic Energy>
17.4772

> <AbsoluteEnergy>
12.8733

> <ConfNumber>
163

> <IonizationIndex>
1

> <MOL_NUMBER>
359

> <NumberOfIonizations>
1

> <NumberOfStereoisomers>
1

> <NumberOfTautomers>
1

> <PUBCHEM_ATOM_DEF_STEREO_COUNT>
0

> <PUBCHEM_ATOM_UDEF_STEREO_COUNT>
0

> <PUBCHEM_BOND_DEF_STEREO_COUNT>
0

> <PUBCHEM_BOND_UDEF_STEREO_COUNT>
0

> <PUBCHEM_CACTVS_TAUTO_COUNT>
2

> <PUBCHEM_COMPONENT_COUNT>
1

> <PUBCHEM_COMPOUND_CID>
71113

> <PUBCHEM_CONFORMER_DIVERSEORDER>
1
45
25
55
30
59
58
42
41
37
48
23
22
39
36
46
57
53
26
19
47
32
20
43
31
44
3
29
34
8
52
40
15
54
16
50
28
51
21
2
14
24
18
10
49
33
27
12
5
7
13
11
35
17
38
9
56
4
6

> <PUBCHEM_CONFORMER_ID>
000115C900000001

> <PUBCHEM_CONFORMER_RMSD>
0.6

> <PUBCHEM_COORDINATE_TYPE>
2
5
10

> <PUBCHEM_EFFECTIVE_ROTOR_COUNT>
5

> <PUBCHEM_FEATURE_SELFOVERLAP>
25.373

> <PUBCHEM_HEAVY_ATOM_COUNT>
10

> <PUBCHEM_ISOTOPIC_ATOM_COUNT>
0

> <PUBCHEM_MMFF94_ENERGY>
7.8558

> <PUBCHEM_MMFF94_PARTIAL_CHARGES>
6
1 -0.57
2 -0.8
26 0.37
27 0.37
3 0.06
8 0.57

> <PUBCHEM_PHARMACOPHORE_FEATURES>
5
1 1 acceptor
1 10 hydrophobe
1 2 donor
1 9 hydrophobe
5 3 4 5 6 7 hydrophobe

> <PUBCHEM_SHAPE_FINGERPRINT>
1 1 17689434205850411925
12423570 1 14594520088541306080
14120999 15 17458063742031226381
14128692 85 18341613784299740331
15477762 27 18267861881614413183
18410436 195 18343014532069738113
20645477 70 18050272967653935703
20653085 51 12973891360042722786
20708731 107 18044940314388070983
20711985 327 18272375303647074487
20711985 344 18117270367949578064
58734985 102 18262244429420715510
81228 2 18263648359592921312

> <PUBCHEM_SHAPE_MULTIPOLES>
194.94
4.49
2.13
0.94
0.44
1.39
-0.1
-4.08
-0.54
-0.11
-0.1
-0.11
0.2
-0.11

> <PUBCHEM_SHAPE_SELFOVERLAP>
355.132

> <PUBCHEM_SHAPE_VOLUME>
124.5

> <RelativeEnergy>
8.00446

> <StereoisomerIndex>
1

> <TautomerIndex>
1

> <POSE_NUMBER>
1

> <LibDockScore>
80.97

> <HotSpots>
8.01,10.07,-2.25,A,50,4
7.21,9.27,-3.25,A,45,6
6.21,10.67,0.94,A,74,7

> <-In-Situ Starting Energy>
-49.0387612

> <-In-Situ Final Energy>
-2.75307637

> <In-Situ Gradient>
0.0007914923888

$$$$
73467
  SciTegic09142310043D

 51 53  0  0  0  0            999 V2000
   11.1726    2.9212  -10.2916 O   0  0  0  1  0  0
   12.3319    2.2342   -8.4872 O   0  0  0  1  0  0
   12.6105    2.9537  -12.0589 O   0  0  0  1  0  0
   14.7015    6.2194   -7.9981 O   0  0  0  1  0  0
    9.2713    1.4690  -11.5845 O   0  0  0  1  0  0
    9.7314    1.8431  -14.5096 O   0  0  0  1  0  0
   12.9182    0.5314  -13.2386 O   0  0  0  1  0  0
   13.4433    5.1767   -5.0545 O   0  0  0  1  0  0
   12.1107    4.0588  -15.5155 O   0  0  0  1  0  0
   14.4817    3.1846   -5.0796 O   0  0  0  1  0  0
   11.7145    4.5972   -8.7763 C   0  0  2  1  0  0
   11.7340    5.7905   -9.7449 C   0  0  2  1  0  0
   12.6500    5.0002   -7.6581 C   0  0  2  1  0  0
   12.1882    3.2907   -9.4100 C   0  0  2  1  0  0
   13.2225    6.0988   -9.8688 C   0  0  0  1  0  0
   13.6898    5.7998   -8.4470 C   0  0  0  1  0  0
   13.1988    3.8052   -6.9305 C   0  0  0  1  0  0
   10.9823    7.0086   -9.1522 C   0  0  0  1  0  0
   11.6127    2.1935  -11.3946 C   0  0  2  1  0  0
   10.3566    2.0934  -12.2350 C   0  0  1  1  0  0
   10.6464    1.3578  -13.5389 C   0  0  2  1  0  0
   12.1389    1.4989  -13.9343 C   0  0  1  1  0  0
   12.7214    2.8382  -13.4656 C   0  0  1  1  0  0
   13.0033    2.5427   -7.3510 C   0  0  0  1  0  0
   13.7788    4.0339   -5.6116 C   0  0  0  1  0  0
   12.1187    4.0994  -14.0985 C   0  0  0  1  0  0
   13.8466    5.3522   -3.7154 C   0  0  0  1  0  0
    9.2654    1.7548  -10.6714 H   0  0
    8.8553    1.9078  -14.1369 H   0  0
   12.8217   -0.3366  -13.6218 H   0  0
   11.7338    4.8655  -15.8653 H   0  0
   10.7299    4.4043   -8.3973 H   0  0
   11.3096    5.5316  -10.7158 H   0  0
   12.1478    5.6804   -6.9710 H   0  0
   13.1485    3.4379   -9.9039 H   0  0
   13.7351    5.4392  -10.5681 H   0  0
   13.4231    7.1244  -10.1556 H   0  0
   10.7464    6.8746   -8.0996 H   0  0
   10.0572    7.2099   -9.6931 H   0  0
   11.5762    7.9219   -9.1652 H   0  0
   11.9975    1.2185  -11.0902 H   0  0
   10.0522    3.1234  -12.4372 H   0  0
   10.4690    0.2960  -13.3745 H   0  0
   12.3140    1.4049  -15.0026 H   0  0
   13.7831    2.8356  -13.7143 H   0  0
   13.3628    1.7019   -6.7841 H   0  0
   11.1085    4.2830  -13.7282 H   0  0
   12.7439    4.9276  -13.7619 H   0  0
   13.6879    4.4277   -3.1538 H   0  0
   13.2448    6.1431   -3.2703 H   0  0
   14.8938    5.6315   -3.7156 H   0  0
  1 14  1  0
  1 19  1  0
  2 14  1  0
  2 24  1  0
  3 19  1  0
  3 23  1  0
  4 16  2  0
  5 20  1  0
  6 21  1  0
  7 22  1  0
  8 25  1  0
  8 27  1  0
  9 26  1  0
 10 25  2  0
 11 12  1  0
 11 13  1  0
 11 14  1  0
 12 15  1  0
 12 18  1  0
 13 16  1  0
 13 17  1  0
 15 16  1  0
 17 24  2  0
 17 25  1  0
 19 20  1  0
 20 21  1  0
 21 22  1  0
 22 23  1  0
 23 26  1  0
  5 28  1  0
  6 29  1  0
  7 30  1  0
  9 31  1  0
 11 32  1  0
 12 33  1  0
 13 34  1  0
 14 35  1  0
 15 36  1  0
 15 37  1  0
 18 38  1  0
 18 39  1  0
 18 40  1  0
 19 41  1  0
 20 42  1  0
 21 43  1  0
 22 44  1  0
 23 45  1  0
 24 46  1  0
 26 47  1  0
 26 48  1  0
 27 49  1  0
 27 50  1  0
 27 51  1  0
M  END
> <Name>
73467

> <Binding Energy>
-13.8088

> <Ligand Energy>
43.3723

> <Protein Energy>
-7801.1566

> <Complex Energy>
-7771.5932

> <Complex Entropy>
-31.485

> <Protein Entropy>
-31.4717

> <Ligand Entropy>
-19.9792

> <Entropic Energy>
19.9658

> <AbsoluteEnergy>
41.0831

> <ConfNumber>
48

> <IonizationIndex>
1

> <MOL_NUMBER>
380

> <NumberOfIonizations>
1

> <NumberOfStereoisomers>
1

> <NumberOfTautomers>
1

> <PUBCHEM_ATOM_DEF_STEREO_COUNT>
9

> <PUBCHEM_ATOM_UDEF_STEREO_COUNT>
0

> <PUBCHEM_BOND_DEF_STEREO_COUNT>
0

> <PUBCHEM_BOND_UDEF_STEREO_COUNT>
0

> <PUBCHEM_CACTVS_TAUTO_COUNT>
3

> <PUBCHEM_COMPONENT_COUNT>
1

> <PUBCHEM_COMPOUND_CID>
73467

> <PUBCHEM_CONFORMER_DIVERSEORDER>
1
70
53
69
116
85
101
12
145
108
72
40
118
97
35
55
68
120
5
58
99
147
124
84
63
48
77
132
2
52
135
95
126
149
88
137
18
119
112
7
30
146
139
102
19
136
107
89
57
115
96
10
65
109
66
43
131
14
39
144
44
140
4
152
46
11
79
17
61
134
111
42
138
3
64
82
127
133
104
123
128
75
60
21
32
27
148
23
71
117
87
31
93
51
76
105
122
114
94
151
62
81
125
74
143
6
110
45
8
129
153
29
141
15
28
78
67
90
50
130
100
121
59
54
80
49
86
37
47
38
34
91
20
56
26
83
92
73
142
16
33
25
150
98
13
113
106
41
22
36
9
103
24

> <PUBCHEM_CONFORMER_ID>
00011EFB00000001

> <PUBCHEM_CONFORMER_RMSD>
0.8

> <PUBCHEM_COORDINATE_TYPE>
2
5
10

> <PUBCHEM_EFFECTIVE_ROTOR_COUNT>
7

> <PUBCHEM_FEATURE_SELFOVERLAP>
81.456

> <PUBCHEM_HEAVY_ATOM_COUNT>
27

> <PUBCHEM_ISOTOPIC_ATOM_COUNT>
0

> <PUBCHEM_MMFF94_ENERGY>
68.4668

> <PUBCHEM_MMFF94_PARTIAL_CHARGES>
29
1 -0.56
10 -0.57
13 0.2
14 0.56
15 0.06
16 0.45
17 -0.12
19 0.56
2 -0.36
20 0.28
21 0.28
22 0.28
23 0.28
24 -0.07
25 0.71
26 0.28
27 0.28
3 -0.56
4 -0.57
42 0.15
45 0.4
46 0.4
47 0.4
48 0.4
5 -0.68
6 -0.68
7 -0.68
8 -0.43
9 -0.68

> <PUBCHEM_PHARMACOPHORE_FEATURES>
16
1 1 acceptor
1 10 acceptor
1 2 acceptor
1 3 acceptor
1 4 acceptor
1 5 acceptor
1 5 donor
1 6 acceptor
1 6 donor
1 7 acceptor
1 7 donor
1 9 acceptor
1 9 donor
5 11 12 13 15 16 rings
6 2 11 13 14 17 24 rings
6 3 19 20 21 22 23 rings

> <PUBCHEM_SHAPE_FINGERPRINT>
10165383 225 18190747419289893461
10366900 7 18409159996625157471
10498660 4 17895184524540749501
10670039 82 17895187779957083645
10764073 3 17257315875784648568
11595378 159 16443332162213379309
12236239 1 15410896262216265674
12596602 18 15502386625301193447
13134695 92 17489864947296780248
13402501 40 18411698790226852727
13631057 29 14274320171246993425
13911987 19 18059307542987140118
13914758 101 17603871041113437974
14251757 17 18337391530852581820
15183329 4 18187082819763519346
15961568 22 17823698766084761156
17349148 13 16057163908334570655
17357779 13 17988642926886215000
1813 80 16200444558732490576
18769570 83 17604149225628566828
21033650 10 17752509580590686678
21792961 116 18340495474175350222
221357 26 18413102845211573013
22182313 1 18271227396401849032
22393880 68 18335697230504758930
23557571 272 18115586101389215499
23559900 14 18409161134654113363
3009799 131 18408886222820025658
350125 39 18410298008191828443
46194498 28 18409453613057592004
508706 21 18335128762040881349
5281201 14 18411983576406934357
5283173 99 18335701590461268096
6287921 2 18122342651713221077
6823239 73 18334570265499164313
7471813 234 16845572023760845905
9709674 26 18337668741206413859

> <PUBCHEM_SHAPE_MULTIPOLES>
496.95
12.45
2.86
1.59
0.79
0.99
-0.5
-4.25
4.52
0.65
-0.03
-0.23
0.95
2.79

> <PUBCHEM_SHAPE_SELFOVERLAP>
1047.343

> <PUBCHEM_SHAPE_VOLUME>
275.9

> <RelativeEnergy>
12.4964

> <StereoisomerIndex>
1

> <TautomerIndex>
1

> <POSE_NUMBER>
1

> <LibDockScore>
102.6796

> <HotSpots>
10.81,8.27,-8.46,A,35,18
11.21,4.87,-14.65,A,18,26
13.41,5.07,-3.25,A,44,27

> <-In-Situ Starting Energy>
-1615.53926

> <-In-Situ Final Energy>
-31.5715746

> <In-Situ Gradient>
0.0008819371852

$$$$
79881
  SciTegic09142310043D

 22 23  0  0  0  0            999 V2000
    3.6272    2.1891    1.3387 O   0  5  0  1  0  0
    3.9475    2.2164   -0.7513 O   0  0  0  1  0  0
    6.1892    0.4509   -2.6556 O   0  0  0  1  0  0
    6.5157    0.9012    0.5253 C   0  0  0  1  0  0
    7.6312    0.6797    1.3403 C   0  0  0  1  0  0
    5.8377    2.1313    0.6648 C   0  0  0  1  0  0
    6.1021   -0.1413   -0.3406 C   0  0  0  1  0  0
    8.2967    1.7387    1.9755 C   0  0  0  1  0  0
    8.0613   -0.6226    1.5603 C   0  0  0  1  0  0
    6.4301    3.1342    1.4641 C   0  0  0  1  0  0
    6.5472   -1.4424   -0.0922 C   0  0  0  1  0  0
    7.6808    2.9695    2.0482 C   0  0  0  1  0  0
    7.4951   -1.6957    0.8915 C   0  0  0  1  0  0
    4.3946    2.1832    0.3862 C   0  0  0  1  0  0
    5.5341    0.1441   -1.6623 C   0  0  0  1  0  0
    9.2771    1.6336    2.4047 H   0  0
    8.8388   -0.7796    2.2658 H   0  0
    5.9553    4.0497    1.7457 H   0  0
    6.1993   -2.2783   -0.6733 H   0  0
    8.1341    3.7678    2.6155 H   0  0
    7.8387   -2.7037    1.0788 H   0  0
    4.4573    0.0413   -1.6942 H   0  0
  1 14  1  0
  2 14  2  0
  3 15  2  0
  4  5  2  0
  4  6  1  0
  4  7  1  0
  5  8  1  0
  5  9  1  0
  6 10  2  0
  6 14  1  0
  7 11  2  0
  7 15  1  0
  8 12  2  0
  9 13  2  0
 10 12  1  0
 11 13  1  0
  8 16  1  0
  9 17  1  0
 10 18  1  0
 11 19  1  0
 12 20  1  0
 13 21  1  0
 15 22  1  0
M  CHG  1   1  -1
M  END
> <Name>
79881

> <Binding Energy>
-72.0867

> <Ligand Energy>
39.8794

> <Protein Energy>
-7801.1566

> <Complex Energy>
-7833.3639

> <Complex Entropy>
-31.4769

> <Protein Entropy>
-31.4717

> <Ligand Entropy>
-18.1304

> <Entropic Energy>
18.1253

> <AbsoluteEnergy>
58.7955

> <ConfNumber>
4

> <Ionization pH>
7.5

> <IonizationIndex>
1

> <MOL_NUMBER>
389

> <NumberOfIonizations>
1

> <NumberOfStereoisomers>
1

> <NumberOfTautomers>
1

> <PUBCHEM_ATOM_DEF_STEREO_COUNT>
0

> <PUBCHEM_ATOM_UDEF_STEREO_COUNT>
0

> <PUBCHEM_BOND_DEF_STEREO_COUNT>
0

> <PUBCHEM_BOND_UDEF_STEREO_COUNT>
0

> <PUBCHEM_CACTVS_TAUTO_COUNT>
1

> <PUBCHEM_COMPONENT_COUNT>
1

> <PUBCHEM_COMPOUND_CID>
79881

> <PUBCHEM_CONFORMER_DIVERSEORDER>
1

> <PUBCHEM_CONFORMER_ID>
1380900000001

> <PUBCHEM_CONFORMER_RMSD>
0.6

> <PUBCHEM_COORDINATE_TYPE>
2
5
10

> <PUBCHEM_EFFECTIVE_ROTOR_COUNT>
2

> <PUBCHEM_FEATURE_SELFOVERLAP>
30.533

> <PUBCHEM_HEAVY_ATOM_COUNT>
15

> <PUBCHEM_ISOTOPIC_ATOM_COUNT>
0

> <PUBCHEM_MMFF94_ENERGY>
61.649

> <PUBCHEM_MMFF94_PARTIAL_CHARGES>
21
1 -0.65
10 -0.15
11 -0.15
12 -0.15
13 -0.15
14 0.63
15 0.42
16 0.15
17 0.15
18 0.15
19 0.15
2 -0.57
20 0.15
21 0.15
22 0.06
23 0.5
3 -0.57
6 0.09
7 0.09
8 -0.15
9 -0.15

> <PUBCHEM_PHARMACOPHORE_FEATURES>
6
1 1 acceptor
1 2 acceptor
1 3 acceptor
3 1 2 14 anion
6 4 5 6 8 10 12 rings
6 4 5 7 9 11 13 rings

> <PUBCHEM_SHAPE_FINGERPRINT>
10967382 1 17977945687848802761
12382932 28 18121492462472195777
12423570 1 10966786656343298346
12524768 44 17981053220946514102
13140716 1 18337956808820741747
14790565 3 18194709001870072037
16945 1 18410575054872646935
193761 8 18193839473013291597
20588541 1 18265336097056570717
20905425 154 17908149020456594028
21501502 16 18267020754891681680
2334 1 18121783000130606999
23388829 49 17116907570644187199
23419403 2 16543191006116680933
23559900 14 18270408171036613110
2748010 2 18265616678875321167
2897 32 16968300314780405606
53812653 166 18268987588078695257
589210 1 18195249042488048045
66348 1 18409166623332180311
7364860 26 17548972256827277303

> <PUBCHEM_SHAPE_MULTIPOLES>
291.09
3.57
3.17
0.77
0.18
0.53
0.07
-0.76
0.08
-0.3
-0.29
0.38
-0.08
0.24

> <PUBCHEM_SHAPE_SELFOVERLAP>
646.586

> <PUBCHEM_SHAPE_VOLUME>
155.6

> <RelativeEnergy>
3.42946

> <StereoisomerIndex>
1

> <TautomerIndex>
1

> <POSE_NUMBER>
1

> <LibDockScore>
53.9774

> <HotSpots>
6.61,-0.93,-0.06,A,65,11
7.21,3.07,2.94,A,85,12
4.81,0.47,-1.05,A,56,15

> <-In-Situ Starting Energy>
-982.555753

> <-In-Situ Final Energy>
19.1138624

> <In-Situ Gradient>
0.0009663679076

$$$$
820777
  SciTegic09142310043D

 19 19  0  0  0  0            999 V2000
    8.1227    7.3407   -5.4168 S   0  0  0  1  0  0
    6.7613    8.9561   -3.8050 N   0  0  0  1  0  0
    6.5427    9.4367   -2.5535 C   0  0  0  1  0  0
    6.2150    8.5533   -1.5348 C   0  0  0  1  0  0
    6.6515   10.7907   -2.2773 C   0  0  0  1  0  0
    6.0841    9.0088   -0.2306 C   0  0  0  1  0  0
    6.5531   11.2429   -0.9670 C   0  0  0  1  0  0
    6.2861   10.3486    0.0575 C   0  0  0  1  0  0
    7.9731    8.4947   -4.2074 C   0  0  0  1  0  0
    9.2378    9.1032   -3.5764 C   0  0  0  1  0  0
    5.9854    8.8801   -4.4371 H   0  0
    6.0845    7.5023   -1.7477 H   0  0
    6.8294   11.4717   -3.0901 H   0  0
    5.8641    8.3129    0.5639 H   0  0
    6.7028   12.2873   -0.7352 H   0  0
    6.2534   10.6904    1.0819 H   0  0
    9.7643    9.6712   -4.3389 H   0  0
    9.8892    8.2997   -3.2428 H   0  0
    9.0583    9.7570   -2.7262 H   0  0
  1  9  2  0
  2  3  1  0
  2  9  1  0
  3  4  2  0
  3  5  1  0
  4  6  1  0
  5  7  2  0
  6  8  2  0
  7  8  1  0
  9 10  1  0
  2 11  1  0
  4 12  1  0
  5 13  1  0
  6 14  1  0
  7 15  1  0
  8 16  1  0
 10 17  1  0
 10 18  1  0
 10 19  1  0
M  END
> <Name>
820777

> <Binding Energy>
-22.0635

> <Ligand Energy>
9.8821

> <Protein Energy>
-7801.1566

> <Complex Energy>
-7813.338

> <Complex Entropy>
-31.4762

> <Protein Entropy>
-31.4717

> <Ligand Entropy>
-17.4464

> <Entropic Energy>
17.4419

> <AbsoluteEnergy>
29.4075

> <ConfNumber>
2

> <Ionization pH>
7.89_D

> <IonizationIndex>
2

> <MOL_NUMBER>
391

> <NumberOfIonizations>
2

> <NumberOfStereoisomers>
1

> <NumberOfTautomers>
2

> <PUBCHEM_ATOM_DEF_STEREO_COUNT>
0

> <PUBCHEM_ATOM_UDEF_STEREO_COUNT>
0

> <PUBCHEM_BOND_DEF_STEREO_COUNT>
0

> <PUBCHEM_BOND_UDEF_STEREO_COUNT>
0

> <PUBCHEM_CACTVS_TAUTO_COUNT>
2

> <PUBCHEM_COMPONENT_COUNT>
1

> <PUBCHEM_COMPOUND_CID>
820777

> <PUBCHEM_CONFORMER_DIVERSEORDER>
1
3
4
7
2
6
5

> <PUBCHEM_CONFORMER_ID>
000C862900000001

> <PUBCHEM_CONFORMER_RMSD>
0.4

> <PUBCHEM_COORDINATE_TYPE>
2
5
10

> <PUBCHEM_EFFECTIVE_ROTOR_COUNT>
2

> <PUBCHEM_FEATURE_SELFOVERLAP>
10.148

> <PUBCHEM_HEAVY_ATOM_COUNT>
10

> <PUBCHEM_ISOTOPIC_ATOM_COUNT>
0

> <PUBCHEM_MMFF94_ENERGY>
37.7895

> <PUBCHEM_MMFF94_PARTIAL_CHARGES>
16
1 -0.38
10 0.06
11 0.15
12 0.15
13 0.37
14 0.15
15 0.15
16 0.15
2 -0.55
3 0.12
4 -0.15
5 -0.15
6 -0.15
7 -0.15
8 -0.15
9 0.38

> <PUBCHEM_PHARMACOPHORE_FEATURES>
2
1 1 acceptor
6 3 4 5 6 7 8 rings

> <PUBCHEM_SHAPE_FINGERPRINT>
11062470 55 17312818299083467284
12932764 1 17417802959311765406
13024252 1 15719390642405682085
14144814 61 18410855443127673272
14325111 11 18411419475281094696
15669948 3 18272926154603822142
15775835 57 18411705361236665312
16945 1 18411415141811950417
20645464 45 17704077295508322668
20871998 184 18059579151965393223
23402539 116 18060131051463496237
23463225 33 18337106748798772826
23552423 10 18263081191981621533
3248919 1 17917143893007378796
3312278 4 18336266846226493619
369184 2 18411979144053438785
7364860 26 18270680862325057550

> <PUBCHEM_SHAPE_MULTIPOLES>
204.66
5.56
1.5
0.68
3.26
0.2
-0.01
-0.51
-0.09
-0.15
-0.09
0.07
0.04
-0.41

> <PUBCHEM_SHAPE_SELFOVERLAP>
405.483

> <PUBCHEM_SHAPE_VOLUME>
122.9

> <RelativeEnergy>
7.01355

> <StereoisomerIndex>
1

> <TautomerIndex>
1

> <POSE_NUMBER>
1

> <LibDockScore>
65.2039

> <HotSpots>
8.41,8.07,-4.86,A,38,1
5.81,8.67,-0.66,A,61,4
6.41,11.47,-0.06,A,67,7

> <-In-Situ Starting Energy>
-41.2242982

> <-In-Situ Final Energy>
11.8074701

> <In-Situ Gradient>
0.000932921941

$$$$
92141
  SciTegic09142310043D

 29 28  0  0  0  0            999 V2000
    8.1633   10.2369   -3.5112 O   0  0  0  1  0  0
    5.1349   10.4636   -0.0637 O   0  0  0  1  0  0
    9.6415    8.2838   -6.5725 O   0  0  0  1  0  0
    6.6462   10.4364   -1.7236 C   0  0  0  1  0  0
    8.2718    8.2090   -4.6109 C   0  0  0  1  0  0
    7.9475    9.8720   -2.1921 C   0  0  0  1  0  0
    9.0816    9.4012   -4.1517 C   0  0  0  1  0  0
    6.2240    9.7020   -0.4669 C   0  0  2  1  0  0
    9.0032    7.3985   -5.6499 C   0  0  2  1  0  0
    5.8095    8.2354   -0.6891 C   0  0  0  1  0  0
    9.8566    6.2700   -5.0267 C   0  0  0  1  0  0
    4.7172   10.0818    0.7042 H   0  0
   10.4556    7.9043   -6.9002 H   0  0
    5.8994   10.3139   -2.5033 H   0  0
    6.7569   11.5049   -1.5405 H   0  0
    7.9651    7.5643   -3.7928 H   0  0
    7.3335    8.5923   -5.0050 H   0  0
    7.8537    8.8013   -2.1662 H   0  0
    8.7843   10.1723   -1.5660 H   0  0
    9.4984    9.9457   -4.9933 H   0  0
    9.9010    9.1169   -3.4913 H   0  0
    7.0248    9.7827    0.2737 H   0  0
    8.1533    6.9334   -6.1321 H   0  0
    4.7778    8.1267   -0.9802 H   0  0
    5.9595    7.6709    0.2282 H   0  0
    6.3297    7.7250   -1.4923 H   0  0
   10.4139    6.5872   -4.1534 H   0  0
   10.5692    5.8192   -5.7180 H   0  0
    9.2040    5.4756   -4.6632 H   0  0
  1  6  1  0
  1  7  1  0
  2  8  1  0
  3  9  1  0
  4  6  1  0
  4  8  1  0
  5  7  1  0
  5  9  1  0
  8 10  1  0
  9 11  1  0
  2 12  1  0
  3 13  1  0
  4 14  1  0
  4 15  1  0
  5 16  1  0
  5 17  1  0
  6 18  1  0
  6 19  1  0
  7 20  1  0
  7 21  1  0
  8 22  1  0
  9 23  1  0
 10 24  1  0
 10 25  1  0
 10 26  1  0
 11 27  1  0
 11 28  1  0
 11 29  1  0
M  END
> <Name>
92141

> <Binding Energy>
-40.8326

> <Ligand Energy>
21.1903

> <Protein Energy>
-7801.1566

> <Complex Energy>
-7820.7989

> <Complex Entropy>
-31.4766

> <Protein Entropy>
-31.4717

> <Ligand Entropy>
-17.8698

> <Entropic Energy>
17.865

> <AbsoluteEnergy>
7.55859

> <ConfNumber>
63

> <IonizationIndex>
1

> <MOL_NUMBER>
400

> <NumberOfIonizations>
1

> <NumberOfStereoisomers>
1

> <NumberOfTautomers>
1

> <PUBCHEM_ATOM_DEF_STEREO_COUNT>
0

> <PUBCHEM_ATOM_UDEF_STEREO_COUNT>
2

> <PUBCHEM_BOND_DEF_STEREO_COUNT>
0

> <PUBCHEM_BOND_UDEF_STEREO_COUNT>
0

> <PUBCHEM_CACTVS_TAUTO_COUNT>
1

> <PUBCHEM_COMPONENT_COUNT>
1

> <PUBCHEM_COMPOUND_CID>
92141

> <PUBCHEM_CONFORMER_DIVERSEORDER>
1
307
129
233
8
69
176
276
327
16
130
239
43
323
21
290
3
256
213
209
136
189
221
235
26
288
255
246
206
36
231
6
60
77
295
190
27
15
70
292
225
266
152
271
245
10
296
169
90
346
25
250
326
22
285
55
205
340
45
175
52
11
171
311
186
222
236
265
119
308
126
237
163
110
312
20
138
177
144
63
262
116
260
48
174
35
228
156
211
309
127
251
313
68
273
84
301
24
329
269
88
128
86
184
112
41
150
101
244
62
134
2
157
166
73
160
168
199
123
91
154
344
267
345
4
170
31
341
227
278
230
330
143
61
275
201
57
241
50
277
105
287
165
58
198
113
215
182
180
111
181
238
305
82
191
253
247
347
194
204
104
219
252
210
208
109
192
39
343
167
164
232
240
334
299
80
30
254
100
223
291
217
9
302
220
98
72
12
259
5
234
40
29
294
179
318
95
67
65
218
283
37
328
78
298
284
71
202
83
133
96
332
132
97
200
197
270
32
81
272
183
115
274
93
315
38
258
56
46
107
257
333
19
317
322
280
33
350
28
87
351
7
135
214
42
94
153
14
18
243
331
226
348
102
120
139
92
248
131
193
124
321
34
289
320
147
242
158
117
282
75
103
264
187
59
142
303
118
79
339
325
286
89
108
224
281
249
336
76
263
99
310
23
207
335
149
172
49
178
151
185
216
66
17
148
51
314
146
268
122
64
195
161
106
137
304
203
155
85
300
173
140
188
125
342
316
74
145
337
47
261
44
338
212
114
349
121
141
13
293
279
229
319
324
162
159
297
196
306
54
53

> <PUBCHEM_CONFORMER_ID>
000167ED00000001

> <PUBCHEM_CONFORMER_RMSD>
0.6

> <PUBCHEM_COORDINATE_TYPE>
2
5
10

> <PUBCHEM_EFFECTIVE_ROTOR_COUNT>
6

> <PUBCHEM_FEATURE_SELFOVERLAP>
25.373

> <PUBCHEM_HEAVY_ATOM_COUNT>
11

> <PUBCHEM_ISOTOPIC_ATOM_COUNT>
0

> <PUBCHEM_MMFF94_ENERGY>
13.5375

> <PUBCHEM_MMFF94_PARTIAL_CHARGES>
9
1 -0.56
2 -0.68
28 0.4
29 0.4
3 -0.68
6 0.28
7 0.28
8 0.28
9 0.28

> <PUBCHEM_PHARMACOPHORE_FEATURES>
5
1 1 acceptor
1 2 acceptor
1 2 donor
1 3 acceptor
1 3 donor

> <PUBCHEM_SHAPE_FINGERPRINT>
10912923 1 15770056137712589638
11062470 55 10159699100970509928
14123238 8 15770056142002184737
15242439 84 18409446973143562461
15501527 16 18262516988663193029
17834072 33 17131541842734388757
17834076 25 16225764108317727021
18342897 14 18413386540211693393
190213 19 18410857659151475809
20645477 70 17845936226095918758
20828058 21 18040155119202976694
20828058 44 17822008726660246323
22485316 2 18410852165888486118
23402539 116 18334566962726887823
23402655 69 18131630071423416420
42788 4 18410853261105068645
449060 50 18272368715562809804
522135 26 17561082497560861374

> <PUBCHEM_SHAPE_MULTIPOLES>
208.77
11.49
0.97
0.73
0
0.05
0
-0.94
0
0
0
0
0.1
0.7

> <PUBCHEM_SHAPE_SELFOVERLAP>
376.345

> <PUBCHEM_SHAPE_VOLUME>
135.2

> <RelativeEnergy>
4.0125

> <StereoisomerIndex>
1

> <TautomerIndex>
1

> <POSE_NUMBER>
1

> <LibDockScore>
84.7973

> <HotSpots>
8.81,8.07,-6.66,P,48,3
8.01,10.07,-2.25,A,50,6
5.81,9.67,0.14,A,68,10

> <-In-Situ Starting Energy>
-558.329354

> <-In-Situ Final Energy>
11.3176526

> <In-Situ Gradient>
0.000984349413

$$$$
92843
  SciTegic09142310043D

 28 27  0  0  0  0            999 V2000
    3.6188    2.2410    0.5411 O   0  5  0  1  0  0
    4.3010    0.8776   -0.9705 O   0  0  0  1  0  0
    6.4155   -0.5794    2.8274 O   0  0  0  1  0  0
    6.2859    0.0321    0.6218 N   0  0  0  1  0  0
    8.1341   -1.6194   -0.0813 N   0  0  0  1  0  0
    7.7647    2.8517    1.2008 C   0  0  0  1  0  0
    6.7381    2.3832    0.1967 C   0  0  0  1  0  0
    5.7745    1.3743    0.8028 C   0  0  1  1  0  0
    7.1211    3.6991    2.3166 C   0  0  0  1  0  0
    8.6253    1.7294    1.7511 C   0  0  0  1  0  0
    4.4862    1.5256    0.0543 C   0  0  0  1  0  0
    6.6175   -0.7760    1.6356 C   0  0  0  1  0  0
    7.3921   -1.9757    1.1082 C   0  0  0  1  0  0
    6.4532   -0.3200   -0.3011 H   0  0
    8.6187   -2.4505   -0.4060 H   0  0
    8.8081   -0.8883    0.0982 H   0  0
    8.4121    3.4288    0.5678 H   0  0
    6.2176    3.2716   -0.1702 H   0  0
    7.2217    1.9508   -0.6811 H   0  0
    5.5776    1.5337    1.8630 H   0  0
    6.3836    3.1488    2.8933 H   0  0
    6.5727    4.5416    1.9025 H   0  0
    7.8655    4.0790    3.0162 H   0  0
    8.9298    1.0682    0.9482 H   0  0
    8.0565    1.1288    2.4397 H   0  0
    9.5068    2.1081    2.2683 H   0  0
    6.7195   -2.7919    0.8528 H   0  0
    8.1129   -2.3238    1.8393 H   0  0
  1 11  1  0
  2 11  2  0
  3 12  2  0
  4  8  1  0
  4 12  1  0
  5 13  1  0
  6  7  1  0
  6  9  1  0
  6 10  1  0
  7  8  1  0
  8 11  1  0
 12 13  1  0
  4 14  1  0
  5 15  1  0
  5 16  1  0
  6 17  1  0
  7 18  1  0
  7 19  1  0
  8 20  1  0
  9 21  1  0
  9 22  1  0
  9 23  1  0
 10 24  1  0
 10 25  1  0
 10 26  1  0
 13 27  1  0
 13 28  1  0
M  CHG  1   1  -1
M  END
> <Name>
92843

> <Binding Energy>
-121.9303

> <Ligand Energy>
-20.9897

> <Protein Energy>
-7801.1566

> <Complex Energy>
-7944.0766

> <Complex Entropy>
-31.4766

> <Protein Entropy>
-31.4717

> <Ligand Entropy>
-18.0365

> <Entropic Energy>
18.0316

> <AbsoluteEnergy>
28.4077

> <ConfNumber>
49

> <Ionization pH>
8.12_DD

> <IonizationIndex>
2

> <MOL_NUMBER>
404

> <NumberOfIonizations>
2

> <NumberOfStereoisomers>
1

> <NumberOfTautomers>
1

> <PUBCHEM_ATOM_DEF_STEREO_COUNT>
1

> <PUBCHEM_ATOM_UDEF_STEREO_COUNT>
0

> <PUBCHEM_BOND_DEF_STEREO_COUNT>
0

> <PUBCHEM_BOND_UDEF_STEREO_COUNT>
0

> <PUBCHEM_CACTVS_TAUTO_COUNT>
2

> <PUBCHEM_COMPONENT_COUNT>
1

> <PUBCHEM_COMPOUND_CID>
92843

> <PUBCHEM_CONFORMER_DIVERSEORDER>
1
9
3
5
8
4
7
6
10
2

> <PUBCHEM_CONFORMER_ID>
00016AAB00000001

> <PUBCHEM_CONFORMER_RMSD>
0.6

> <PUBCHEM_COORDINATE_TYPE>
2
5
10

> <PUBCHEM_EFFECTIVE_ROTOR_COUNT>
6

> <PUBCHEM_FEATURE_SELFOVERLAP>
40.655

> <PUBCHEM_HEAVY_ATOM_COUNT>
13

> <PUBCHEM_ISOTOPIC_ATOM_COUNT>
0

> <PUBCHEM_MMFF94_ENERGY>
21.4572

> <PUBCHEM_MMFF94_PARTIAL_CHARGES>
13
1 -0.65
11 0.66
12 0.57
13 0.33
2 -0.57
24 0.37
27 0.5
28 0.36
29 0.36
3 -0.57
4 -0.73
5 -0.99
8 0.36

> <PUBCHEM_PHARMACOPHORE_FEATURES>
8
1 1 acceptor
1 2 acceptor
1 3 acceptor
1 4 donor
1 5 cation
1 5 donor
3 1 2 11 anion
3 6 9 10 hydrophobe

> <PUBCHEM_SHAPE_FINGERPRINT>
1 1 17255682993363480421
100427 49 18194691590272016267
12138202 97 18125433112362448748
12716758 59 18053106125159443762
14817 1 12850154636519020439
16945 1 18263099737586998127
20361792 2 18270400632335085495
20524608 308 18196934357822381494
20645476 183 17608119492800721302
20711985 344 18337939121950205395
20871998 184 18270686363592464935
23402539 116 18197764536419826525
23552423 10 17691412223401146511
23557571 272 18201166473068125348
23598294 1 18337390414134711674
257057 1 18268978946530675015
2748010 2 18267298931623535889
81228 2 18340498772060984361

> <PUBCHEM_SHAPE_MULTIPOLES>
239.96
4.19
2.99
1.04
3.31
2.12
-0.23
-2.98
-0.27
-1.27
0.36
-0.18
-0.33
-0.07

> <PUBCHEM_SHAPE_SELFOVERLAP>
454.977

> <PUBCHEM_SHAPE_VOLUME>
147.6

> <RelativeEnergy>
17.6243

> <StereoisomerIndex>
1

> <TautomerIndex>
1

> <POSE_NUMBER>
1

> <LibDockScore>
79.7057

> <HotSpots>
3.21,3.27,-1.25,P,79,1
7.81,2.67,0.94,A,73,10
7.01,-0.53,1.54,A,78,13

> <-In-Situ Starting Energy>
-9821.20636

> <-In-Situ Final Energy>
73.9212839

> <In-Situ Gradient>
0.0008470844383

$$$$
92953
  SciTegic09142310043D

 29 29  0  0  0  0            999 V2000
    9.5609    9.7800   -3.1535 O   0  5  0  1  0  0
   10.0511   10.0593   -5.2304 O   0  0  0  1  0  0
   10.1100    7.0867   -6.2071 O   0  0  0  1  0  0
    8.5765    7.2190   -4.5134 N   0  0  0  1  0  0
   10.9972    4.6958   -5.5853 N   0  0  0  1  0  0
    8.2603    8.6075   -4.7370 C   0  0  1  1  0  0
    6.8584    9.0662   -4.2619 C   0  0  0  1  0  0
    6.6556    9.3829   -2.7929 C   0  0  0  1  0  0
    9.3825    9.5377   -4.3364 C   0  0  0  1  0  0
    6.3068    8.4166   -1.8556 C   0  0  0  1  0  0
    6.7218   10.7050   -2.3660 C   0  0  0  1  0  0
    9.6224    6.6591   -5.1699 C   0  0  0  1  0  0
    6.0841    8.7626   -0.5257 C   0  0  0  1  0  0
    6.5514   11.0494   -1.0330 C   0  0  0  1  0  0
   10.2446    5.4019   -4.5554 C   0  0  0  1  0  0
    6.2359   10.0734   -0.1072 C   0  0  0  1  0  0
    8.0754    6.7594   -3.7884 H   0  0
   11.8448    4.2913   -5.2074 H   0  0
   11.3007    5.4058   -6.2586 H   0  0
    8.3263    8.6394   -5.7954 H   0  0
    6.6504    9.9942   -4.7882 H   0  0
    6.0986    8.3760   -4.6051 H   0  0
    6.2179    7.3808   -2.1324 H   0  0
    6.9147   11.4661   -3.0969 H   0  0
    5.8412    7.9975    0.1947 H   0  0
    6.6794   12.0722   -0.7120 H   0  0
   10.9553    5.7004   -3.7873 H   0  0
    9.4912    4.7328   -4.1384 H   0  0
    6.1301   10.3344    0.9343 H   0  0
  1  9  1  0
  2  9  2  0
  3 12  2  0
  4  6  1  0
  4 12  1  0
  5 15  1  0
  6  7  1  0
  6  9  1  0
  7  8  1  0
  8 10  2  0
  8 11  1  0
 10 13  1  0
 11 14  2  0
 12 15  1  0
 13 16  2  0
 14 16  1  0
  4 17  1  0
  5 18  1  0
  5 19  1  0
  6 20  1  0
  7 21  1  0
  7 22  1  0
 10 23  1  0
 11 24  1  0
 13 25  1  0
 14 26  1  0
 15 27  1  0
 15 28  1  0
 16 29  1  0
M  CHG  1   1  -1
M  END
> <Name>
92953

> <Binding Energy>
-22.4082

> <Ligand Energy>
-10.2867

> <Protein Energy>
-7801.1566

> <Complex Energy>
-7833.8516

> <Complex Entropy>
-31.4784

> <Protein Entropy>
-31.4717

> <Ligand Entropy>
-18.5758

> <Entropic Energy>
18.5691

> <AbsoluteEnergy>
24.9559

> <ConfNumber>
18

> <Ionization pH>
8.31_DD

> <IonizationIndex>
2

> <MOL_NUMBER>
406

> <NumberOfIonizations>
2

> <NumberOfStereoisomers>
1

> <NumberOfTautomers>
1

> <PUBCHEM_ATOM_DEF_STEREO_COUNT>
1

> <PUBCHEM_ATOM_UDEF_STEREO_COUNT>
0

> <PUBCHEM_BOND_DEF_STEREO_COUNT>
0

> <PUBCHEM_BOND_UDEF_STEREO_COUNT>
0

> <PUBCHEM_CACTVS_TAUTO_COUNT>
2

> <PUBCHEM_COMPONENT_COUNT>
1

> <PUBCHEM_COMPOUND_CID>
92953

> <PUBCHEM_CONFORMER_DIVERSEORDER>
1
10
5
3
7
15
2
12
4
14
9
8
6
11
13

> <PUBCHEM_CONFORMER_ID>
00016B1900000001

> <PUBCHEM_CONFORMER_RMSD>
0.8

> <PUBCHEM_COORDINATE_TYPE>
2
5
10

> <PUBCHEM_EFFECTIVE_ROTOR_COUNT>
6

> <PUBCHEM_FEATURE_SELFOVERLAP>
40.657

> <PUBCHEM_HEAVY_ATOM_COUNT>
16

> <PUBCHEM_ISOTOPIC_ATOM_COUNT>
0

> <PUBCHEM_MMFF94_ENERGY>
32.0974

> <PUBCHEM_MMFF94_PARTIAL_CHARGES>
25
1 -0.65
10 -0.15
11 -0.15
12 0.57
13 -0.15
14 -0.15
15 0.33
16 -0.15
2 -0.57
20 0.37
21 0.15
22 0.15
23 0.15
24 0.15
27 0.15
28 0.5
29 0.36
3 -0.57
30 0.36
4 -0.73
5 -0.99
6 0.36
7 0.14
8 -0.14
9 0.66

> <PUBCHEM_PHARMACOPHORE_FEATURES>
8
1 1 acceptor
1 2 acceptor
1 3 acceptor
1 4 donor
1 5 cation
1 5 donor
3 1 2 9 anion
6 8 10 11 13 14 16 rings

> <PUBCHEM_SHAPE_FINGERPRINT>
11322862 65 18409452444805485727
116883 192 18268147741789383751
12500047 106 18339078186290590588
12553582 1 17905901622710470174
13083527 12 17689417700575982048
14115302 16 18265346023290507636
14178342 30 18336533985145637450
15207287 21 17987227838051351572
15279308 132 18269838605894389640
15852999 172 18201154339263060500
15885798 251 18120378915429944643
16752209 62 18259978297512348203
16945 1 18412269436376689524
18186145 218 18056194674570440900
20524608 308 18412825772101450442
20645476 183 17095820831688079976
21524375 3 18117276960914307187
23184049 29 18265613375850259150
23402539 116 18271225163161292885
23419403 2 14258213476255289255
23557571 272 18268423719176125082
23559900 14 18269841926848348902
23598291 2 17458927967161409332
23728640 28 18336823096178918898
257057 1 17907008831030104999
2748010 2 18121238492714169775
305870 269 17978227154146395257
3071541 236 18408598150019161399
43471831 8 18049441435787604633
465052 167 17460345242256212561
6338986 31 17979069710633787311
69090 78 18059283288842803685
7364860 26 17403736649491575069
74978 22 18335141994576735236
81228 2 18263927798960809825
8809292 202 18271808961122929740
9709674 26 18272646866081657964

> <PUBCHEM_SHAPE_MULTIPOLES>
301.7
5.51
3.31
1.11
3.1
1.93
-0.08
-0.1
-0.15
-4.43
-0.25
0.46
0.16
0.51

> <PUBCHEM_SHAPE_SELFOVERLAP>
616.43

> <PUBCHEM_SHAPE_VOLUME>
172.9

> <RelativeEnergy>
6.35368

> <StereoisomerIndex>
1

> <TautomerIndex>
1

> <POSE_NUMBER>
1

> <LibDockScore>
96.1704

> <HotSpots>
9.81,9.87,-3.46,P,67,1
10.01,10.27,-5.66,P,55,2
6.61,10.07,-1.25,A,54,14

> <-In-Situ Starting Energy>
-147.047749

> <-In-Situ Final Energy>
38.381216

> <In-Situ Gradient>
0.0008512457247

$$$$
92972
  SciTegic09142310043D

 49 48  0  0  0  0            999 V2000
   12.8702    2.2640  -13.8655 O   0  0  0  1  0  0
   10.1658    2.3807  -13.3576 O   0  0  0  1  0  0
   11.8066    0.9272  -10.6219 O   0  0  0  1  0  0
   12.1602    5.3442  -12.2766 O   0  0  0  1  0  0
   12.6190   -1.4354  -12.5278 O   0  0  0  1  0  0
   10.6604    4.3732  -15.3269 O   0  0  0  1  0  0
   14.9919    2.4403  -13.1766 O   0  0  0  1  0  0
    8.3961    3.5125  -12.5764 O   0  0  0  1  0  0
   10.7416    0.0974   -8.8463 O   0  0  0  1  0  0
   11.0985    5.0172  -10.3355 O   0  0  0  1  0  0
   12.0023   -2.9637  -14.0465 O   0  0  0  1  0  0
   12.3829    2.3099  -12.5160 C   0  0  1  1  0  0
   11.0583    3.0977  -12.5017 C   0  0  1  1  0  0
   12.1043    0.8725  -12.0220 C   0  0  1  1  0  0
   11.1583    4.5841  -12.9682 C   0  0  2  1  0  0
   13.2200   -0.1707  -12.2090 C   0  0  0  1  0  0
   11.4739    4.6751  -14.4657 C   0  0  0  1  0  0
   14.1716    2.3419  -14.0751 C   0  0  0  1  0  0
    8.9057    2.7512  -13.3827 C   0  0  0  1  0  0
   10.7969    0.2641  -10.0550 C   0  0  0  1  0  0
   12.0419    5.4646  -10.9649 C   0  0  0  1  0  0
   14.5720    2.2757  -15.5436 C   0  0  0  1  0  0
   12.5415   -1.8978  -13.7842 C   0  0  0  1  0  0
    8.1348    2.1431  -14.5327 C   0  0  0  1  0  0
    9.6811   -0.2767  -10.9545 C   0  0  0  1  0  0
   13.1959    6.2039  -10.2970 C   0  0  0  1  0  0
   13.1274   -1.0456  -14.9158 C   0  0  0  1  0  0
   13.1011    2.7952  -11.8509 H   0  0
   10.6502    3.0549  -11.4902 H   0  0
   11.2661    0.4983  -12.6018 H   0  0
   10.1995    5.0839  -12.8220 H   0  0
   13.9623    0.1057  -12.9483 H   0  0
   13.7798   -0.2899  -11.2814 H   0  0
   12.4697    5.0296  -14.6851 H   0  0
   13.9660    2.9720  -16.1174 H   0  0
   14.4148    1.2697  -15.9297 H   0  0
   15.6236    2.5380  -15.6545 H   0  0
    8.6494    1.2817  -14.9255 H   0  0
    8.1569    2.8111  -15.3628 H   0  0
    7.1010    1.9418  -14.2574 H   0  0
   10.0668   -0.9377  -11.7245 H   0  0
    9.1461    0.5475  -11.4245 H   0  0
    8.9764   -0.8492  -10.3526 H   0  0
   13.7964    6.7152  -11.0484 H   0  0
   13.8273    5.4945   -9.7633 H   0  0
   12.8084    6.9340   -9.5871 H   0  0
   14.2078   -0.9550  -14.8112 H   0  0
   12.6598   -0.0629  -14.9332 H   0  0
   12.9274   -1.5322  -15.8694 H   0  0
  1 12  1  0
  1 18  1  0
  2 13  1  0
  2 19  1  0
  3 14  1  0
  3 20  1  0
  4 15  1  0
  4 21  1  0
  5 16  1  0
  5 23  1  0
  6 17  2  0
  7 18  2  0
  8 19  2  0
  9 20  2  0
 10 21  2  0
 11 23  2  0
 12 13  1  0
 12 14  1  0
 13 15  1  0
 14 16  1  0
 15 17  1  0
 18 22  1  0
 19 24  1  0
 20 25  1  0
 21 26  1  0
 23 27  1  0
 12 28  1  0
 13 29  1  0
 14 30  1  0
 15 31  1  0
 16 32  1  0
 16 33  1  0
 17 34  1  0
 22 35  1  0
 22 36  1  0
 22 37  1  0
 24 38  1  0
 24 39  1  0
 24 40  1  0
 25 41  1  0
 25 42  1  0
 25 43  1  0
 26 44  1  0
 26 45  1  0
 26 46  1  0
 27 47  1  0
 27 48  1  0
 27 49  1  0
M  END
> <Name>
92972

> <Binding Energy>
-125.3963

> <Ligand Energy>
-153.3139

> <Protein Energy>
-7801.1566

> <Complex Energy>
-8079.8668

> <Complex Entropy>
-31.4857

> <Protein Entropy>
-31.4717

> <Ligand Entropy>
-19.8977

> <Entropic Energy>
19.8837

> <AbsoluteEnergy>
44.0962

> <ConfNumber>
61

> <IonizationIndex>
1

> <MOL_NUMBER>
407

> <NumberOfIonizations>
1

> <NumberOfStereoisomers>
1

> <NumberOfTautomers>
1

> <PUBCHEM_ATOM_DEF_STEREO_COUNT>
4

> <PUBCHEM_ATOM_UDEF_STEREO_COUNT>
0

> <PUBCHEM_BOND_DEF_STEREO_COUNT>
0

> <PUBCHEM_BOND_UDEF_STEREO_COUNT>
0

> <PUBCHEM_CACTVS_TAUTO_COUNT>
2

> <PUBCHEM_COMPONENT_COUNT>
1

> <PUBCHEM_COMPOUND_CID>
92972

> <PUBCHEM_CONFORMER_DIVERSEORDER>
1
13
30
45
38
15
24
52
14
57
23
6
21
31
22
53
33
40
56
29
51
17
48
9
18
47
26
20
50
49
35
37
39
43
4
5
54
42
19
44
8
32
41
55
12
46
11
25
2
28
27
36
16
34
7
10
3

> <PUBCHEM_CONFORMER_ID>
00016B2C00000001

> <PUBCHEM_CONFORMER_RMSD>
1.2

> <PUBCHEM_COORDINATE_TYPE>
2
5
10

> <PUBCHEM_EFFECTIVE_ROTOR_COUNT>
15

> <PUBCHEM_FEATURE_SELFOVERLAP>
30.452

> <PUBCHEM_HEAVY_ATOM_COUNT>
27

> <PUBCHEM_ISOTOPIC_ATOM_COUNT>
0

> <PUBCHEM_MMFF94_ENERGY>
42.6217

> <PUBCHEM_MMFF94_PARTIAL_CHARGES>
28
1 -0.43
10 -0.57
11 -0.57
12 0.28
13 0.28
14 0.28
15 0.34
16 0.28
17 0.45
18 0.66
19 0.66
2 -0.43
20 0.66
21 0.66
22 0.06
23 0.66
24 0.06
25 0.06
26 0.06
27 0.06
3 -0.43
34 0.06
4 -0.43
5 -0.43
6 -0.57
7 -0.57
8 -0.57
9 -0.57

> <PUBCHEM_PHARMACOPHORE_FEATURES>
6
1 10 acceptor
1 11 acceptor
1 6 acceptor
1 7 acceptor
1 8 acceptor
1 9 acceptor

> <PUBCHEM_SHAPE_FINGERPRINT>
11578080 2 17682976387492243949
12788726 201 17844834601270464472
14713325 29 17751068116309150892
17980427 26 17772729779961773953
20600515 1 18269570488176214572
20905425 154 17559134081051604569
21330990 113 18187933820014372637
23419403 2 15457814412164566594
394222 165 15311065914972638276
469060 322 17174372025552470630
57527585 103 17401755333628231163
5845 1 13964480950686609405
81228 2 17200271202190611744

> <PUBCHEM_SHAPE_MULTIPOLES>
491.08
5.39
4.68
3.31
0.31
4.58
1.79
1.56
-1.68
2.51
-0.64
-2.17
-3.07
-0.14

> <PUBCHEM_SHAPE_SELFOVERLAP>
973.048

> <PUBCHEM_SHAPE_VOLUME>
287.9

> <RelativeEnergy>
12.6847

> <StereoisomerIndex>
1

> <TautomerIndex>
1

> <POSE_NUMBER>
1

> <LibDockScore>
104.7894

> <HotSpots>
11.41,-3.13,-14.46,P,20,11
11.21,4.87,-14.65,A,18,17
7.21,2.27,-14.26,A,20,24

> <-In-Situ Starting Energy>
-139.773877

> <-In-Situ Final Energy>
87.8115274

> <In-Situ Gradient>
0.0009866930825

$$$$
98046
  SciTegic09142310043D

 30 30  0  0  0  0            999 V2000
    9.8743    6.7360   -6.1052 O   0  0  0  1  0  0
    6.1631   12.3177   -0.3741 O   0  0  0  1  0  0
    6.7629   11.7316   -2.7543 O   0  0  0  1  0  0
    6.7389    9.4514   -2.3516 N   0  0  0  1  0  0
    7.4700    8.9307   -3.3690 C   0  0  0  1  0  0
    5.9121   10.9673   -0.6987 C   0  0  1  1  0  0
    6.5127   10.7458   -2.0703 C   0  0  0  1  0  0
    9.0926    7.6135   -5.3217 C   0  0  0  1  0  0
    8.1812    9.6190   -4.2918 C   0  0  0  1  0  0
    7.5616    7.5952   -3.4667 C   0  0  0  1  0  0
    9.0650    9.0011   -5.1731 C   0  0  0  1  0  0
    8.2023    6.9456   -4.5253 C   0  0  0  1  0  0
    6.4861   10.0284    0.3429 C   0  0  0  1  0  0
   10.9610    7.1284   -6.9369 C   0  0  0  1  0  0
   11.3050    6.1741   -8.0891 C   0  0  0  1  0  0
    6.6698   12.6831   -1.0987 H   0  0
    6.3609    8.8151   -1.6811 H   0  0
    4.8391   10.8178   -0.7466 H   0  0
    7.9728   10.6495   -4.3088 H   0  0
    7.1102    7.0121   -2.6751 H   0  0
    9.6350    9.7139   -5.6897 H   0  0
    8.1756    5.8699   -4.5857 H   0  0
    5.9485    9.0806    0.3871 H   0  0
    6.4380   10.5054    1.3173 H   0  0
    7.5257    9.8171    0.1190 H   0  0
   11.8667    7.0541   -6.3567 H   0  0
   10.8141    8.1100   -7.3633 H   0  0
   11.2447    5.1302   -7.7830 H   0  0
   12.3279    6.3494   -8.4251 H   0  0
   10.6808    6.3335   -8.9667 H   0  0
  1  8  1  0
  1 14  1  0
  2  6  1  0
  3  7  2  0
  4  5  1  0
  4  7  1  0
  5  9  2  0
  5 10  1  0
  6  7  1  0
  6 13  1  0
  8 11  2  0
  8 12  1  0
  9 11  1  0
 10 12  2  0
 14 15  1  0
  2 16  1  0
  4 17  1  0
  6 18  1  0
  9 19  1  0
 10 20  1  0
 11 21  1  0
 12 22  1  0
 13 23  1  0
 13 24  1  0
 13 25  1  0
 14 26  1  0
 14 27  1  0
 15 28  1  0
 15 29  1  0
 15 30  1  0
M  END
> <Name>
98046

> <Binding Energy>
-19.0003

> <Ligand Energy>
15.2053

> <Protein Energy>
-7801.1566

> <Complex Energy>
-7804.9517

> <Complex Entropy>
-31.4781

> <Protein Entropy>
-31.4717

> <Ligand Entropy>
-18.4768

> <Entropic Energy>
18.4704

> <AbsoluteEnergy>
36.3665

> <ConfNumber>
18

> <Ionization pH>
7.5

> <IonizationIndex>
1

> <MOL_NUMBER>
411

> <NumberOfIonizations>
1

> <NumberOfStereoisomers>
1

> <NumberOfTautomers>
2

> <PUBCHEM_ATOM_DEF_STEREO_COUNT>
0

> <PUBCHEM_ATOM_UDEF_STEREO_COUNT>
1

> <PUBCHEM_BOND_DEF_STEREO_COUNT>
0

> <PUBCHEM_BOND_UDEF_STEREO_COUNT>
0

> <PUBCHEM_CACTVS_TAUTO_COUNT>
2

> <PUBCHEM_COMPONENT_COUNT>
1

> <PUBCHEM_COMPOUND_CID>
98046

> <PUBCHEM_CONFORMER_DIVERSEORDER>
1
40
41
25
14
30
15
18
35
28
23
8
36
11
20
39
10
38
9
31
33
22
24
19
34
13
29
3
42
21
37
2
17
5
27
7
26
32
4
6
12
16

> <PUBCHEM_CONFORMER_ID>
00017EFE00000001

> <PUBCHEM_CONFORMER_RMSD>
0.6

> <PUBCHEM_COORDINATE_TYPE>
2
5
10

> <PUBCHEM_EFFECTIVE_ROTOR_COUNT>
5

> <PUBCHEM_FEATURE_SELFOVERLAP>
30.456

> <PUBCHEM_HEAVY_ATOM_COUNT>
15

> <PUBCHEM_ISOTOPIC_ATOM_COUNT>
0

> <PUBCHEM_MMFF94_ENERGY>
40.1355

> <PUBCHEM_MMFF94_PARTIAL_CHARGES>
19
1 -0.36
10 -0.15
11 -0.15
12 -0.15
14 0.28
17 0.37
18 0.15
19 0.15
2 -0.68
20 0.15
21 0.15
3 -0.57
30 0.4
4 -0.55
5 0.12
6 0.34
7 0.57
8 0.08
9 -0.15

> <PUBCHEM_PHARMACOPHORE_FEATURES>
6
1 1 acceptor
1 2 acceptor
1 2 donor
1 3 acceptor
1 4 donor
6 5 8 9 10 11 12 rings

> <PUBCHEM_SHAPE_FINGERPRINT>
11401426 45 18407755950219666331
11471102 20 18409730664360236650
12032990 46 18409456903076328443
12670543 26 18336260142336166439
13533116 47 16200156456721592814
13690532 89 18410012121835324771
13760787 19 16225764129760928651
13862211 1 18408880733329880891
14115302 16 17968105256069226023
14123238 8 17203609289363886060
14911166 2 18334573551528498979
14993402 34 18186801383372903609
15048467 5 12829489242581936415
15242439 84 18113901563280471211
17802600 8 18335136492591708108
17834072 33 17917708036819342069
17834072 8 18259985972413151999
17834076 25 15574712491528322321
18186145 218 17822285820680631079
187816 3 18410572890451729569
200 152 17846497028391228403
20279233 1 18341621416926071794
20300324 65 18060138722006132889
20645477 70 18059580135966636694
21029758 11 18412824698687070553
21267235 1 18410019840398178771
21637258 2 16200136695877237543
23402539 116 18131066018138212165
23402655 69 18337381661571623773
23559900 14 18340766060977247560
29717793 49 18131631171367665133
3286 77 17346595266118571168
366044 4 18333730225952109811
3759504 43 16877947161385380451
42788 4 18409165511035870937
4990 188 18343022172747985943
58051976 100 18060136595728400190
69090 78 18343018899877547686

> <PUBCHEM_SHAPE_MULTIPOLES>
286.1
11.1
1.35
0.76
2.61
0.02
0.08
-0.78
2.89
-0.57
0.04
0.08
-0.14
0.37

> <PUBCHEM_SHAPE_SELFOVERLAP>
581.404

> <PUBCHEM_SHAPE_VOLUME>
166.1

> <RelativeEnergy>
4.71046

> <StereoisomerIndex>
1

> <TautomerIndex>
1

> <POSE_NUMBER>
1

> <LibDockScore>
87.1797

> <HotSpots>
6.61,11.87,-1.46,A,53,6
6.41,11.47,-0.06,A,67,13
10.81,8.27,-8.46,A,35,15

> <-In-Situ Starting Energy>
-3363.65419

> <-In-Situ Final Energy>
-28.0851217

> <In-Situ Gradient>
0.0009997318907

$$$$
