2519
  SciTegic09122300493D

 24 25  0  0  0  0            999 V2000
    7.3344   -1.1151    2.0284 C   0  0  0  1  0  0
    6.5595    4.1984    2.2774 C   0  0  0  1  0  0
    7.8347    0.4659   -2.4811 C   0  0  0  1  0  0
    7.1646    4.1791   -0.2790 C   0  0  0  1  0  0
    7.8820   -0.2379   -0.0969 C   0  0  0  1  0  0
    7.2071    2.3344    0.7933 C   0  0  0  1  0  0
    7.4312    3.2747   -1.2308 N   0  0  0  1  0  0
    7.5013    0.0444    1.1854 N   0  0  0  1  0  0
    6.9553    3.6582    0.9566 N   0  0  0  1  0  0
    7.7577    0.7399   -1.0404 N   0  0  0  1  0  0
    7.2043    1.2657    1.7137 C   0  0  0  1  0  0
    7.4815    2.0816   -0.5561 C   0  0  0  1  0  0
    8.3195   -1.3425   -0.3448 O   0  0  0  1  0  0
    6.9468    1.4011    2.9080 O   0  0  0  1  0  0
    8.1985   -1.7707    1.9600 H   0  0
    6.4854   -1.6727    1.6489 H   0  0
    7.1382   -0.8625    3.0696 H   0  0
    6.3380    5.2511    2.2507 H   0  0
    7.3554    4.0510    3.0090 H   0  0
    5.6668    3.6969    2.6526 H   0  0
    6.8768    0.0835   -2.8360 H   0  0
    8.5975   -0.2691   -2.7150 H   0  0
    8.0677    1.3709   -3.0438 H   0  0
    7.1326    5.2227   -0.5349 H   0  0
  1  8  1  0
  2  9  1  0
  3 10  1  0
  4  7  2  0
  4  9  1  0
  5  8  1  0
  5 10  1  0
  5 13  2  0
  6  9  1  0
  6 11  1  0
  6 12  2  0
  7 12  1  0
  8 11  1  0
 10 12  1  0
 11 14  2  0
  1 15  1  0
  1 16  1  0
  1 17  1  0
  2 18  1  0
  2 19  1  0
  2 20  1  0
  3 21  1  0
  3 22  1  0
  3 23  1  0
  4 24  1  0
M  END
> <Name>
2519

> <Binding Energy>
-7.4004

> <Ligand Energy>
11.2705

> <Protein Energy>
-7801.1566

> <Complex Energy>
-7797.2866

> <Complex Entropy>
-31.4769

> <Protein Entropy>
-31.4717

> <Ligand Entropy>
-18.0145

> <Entropic Energy>
18.0093

> <AbsoluteEnergy>
27.6803

> <ConfNumber>
1

> <Ionization pH>
7.5

> <IonizationIndex>
1

> <MOL_NUMBER>
4

> <NumberOfIonizations>
1

> <NumberOfStereoisomers>
1

> <NumberOfTautomers>
1

> <RelativeEnergy>
0

> <StereoisomerIndex>
1

> <TautomerIndex>
1

> <POSE_NUMBER>
1

> <LibDockScore>
67.4758

> <HotSpots>
7.61,-2.13,0.94,A,72,1
7.21,3.07,2.94,A,85,2
7.21,1.27,-2.85,A,46,3

> <-In-Situ Starting Energy>
-447.548913

> <-In-Situ Final Energy>
1.37161428

> <In-Situ Gradient>
0.0008150655005

> <Favorable Total>
10

> <Unfavorable Total>
0

> <Charge Total>
0

> <Hydrophobic Total>
6

> <HydrogenBond Total>
4

> <Other Total>
0

> <Favorable A:LYS6>
0

> <Favorable A:ARG55>
0

> <Favorable A:LEU58>
0

> <Favorable A:LEU61>
0

> <Favorable A:ILE62>
0

> <Favorable A:GLY64>
0

> <Favorable A:SER65>
0

> <Favorable A:TRP66>
0

> <Favorable A:SER69>
0

> <Favorable A:VAL70>
0

> <Favorable A:PRO73>
0

> <Favorable A:ALA74>
0

> <Favorable A:PHE76>
0

> <Favorable A:ALA77>
0

> <Favorable A:THR78>
0

> <Favorable A:GLU79>
0

> <Favorable A:PHE82>
0

> <Favorable A:ARG83>
0

> <Favorable A:LEU85>
0

> <Favorable A:THR86>
0

> <Favorable A:TRP89>
0

> <Favorable A:THR90>
0

> <Favorable A:ASN93>
0

> <Favorable A:HIS94>
0

> <Favorable A:SER96>
0

> <Favorable A:VAL97>
1

> <Favorable A:TRP98>
0

> <Favorable A:PHE140>
0

> <Favorable A:LEU141>
0

> <Favorable A:ASN144>
0

> <Favorable A:ILE148>
0

> <Favorable A:ILE150>
0

> <Favorable A:HIS151>
0

> <Favorable A:ILE152>
0

> <Favorable A:ALA154>
0

> <Favorable A:SER155>
0

> <Favorable A:ILE156>
0

> <Favorable A:GLY158>
0

> <Favorable A:TYR159>
0

> <Favorable A:ARG160>
0

> <Favorable A:ARG161>
0

> <Favorable A:ASN162>
0

> <Favorable A:LYS163>
0

> <Favorable A:SER167>
0

> <Favorable A:ASP168>
0

> <Favorable A:SER169>
0

> <Favorable A:ASN171>
0

> <Favorable A:PHE172>
0

> <Favorable A:THR173>
0

> <Favorable A:ARG174>
0

> <Favorable A:PHE175>
0

> <Favorable A:SER176>
0

> <Favorable A:SER177>
0

> <Favorable A:LEU178>
0

> <Favorable A:ILE179>
0

> <Favorable A:VAL180>
0

> <Favorable A:LEU181>
0

> <Favorable A:SER183>
0

> <Favorable A:THR184>
0

> <Favorable A:PHE186>
0

> <Favorable A:ILE187>
1

> <Favorable A:PHE188>
0

> <Favorable A:ILE189>
0

> <Favorable A:PRO190>
0

> <Favorable A:PHE191>
0

> <Favorable A:TYR240>
0

> <Favorable A:PHE243>
1

> <Favorable A:SER244>
2

> <Favorable A:PHE247>
3

> <Favorable A:PHE248>
0

> <Favorable A:VAL251>
0

> <Favorable A:TRP252>
0

> <Favorable A:SER254>
0

> <Favorable A:GLU255>
0

> <Favorable A:ARG256>
0

> <Favorable A:LEU257>
0

> <Favorable A:GLU258>
0

> <Favorable A:GLU259>
0

> <Favorable A:LEU261>
0

> <Favorable A:ILE262>
0

> <Favorable A:ILE263>
0

> <Favorable A:SER265>
0

> <Favorable A:GLN266>
0

> <Favorable A:MET268>
0

> <Favorable A:GLY269>
1

> <Favorable A:TYR272>
1

> <Favorable A:PRO273>
0

> <Unfavorable A:ARG55>
0

> <Unfavorable A:PRO73>
0

> <Unfavorable A:PHE76>
0

> <Unfavorable A:GLU79>
0

> <Unfavorable A:ARG83>
0

> <Unfavorable A:THR86>
0

> <Unfavorable A:TRP89>
0

> <Unfavorable A:THR90>
0

> <Unfavorable A:ASN93>
0

> <Unfavorable A:TRP98>
0

> <Unfavorable A:ASN144>
0

> <Unfavorable A:SER155>
0

> <Unfavorable A:GLY158>
0

> <Unfavorable A:TYR159>
0

> <Unfavorable A:ASN162>
0

> <Unfavorable A:ASP168>
0

> <Unfavorable A:ASN171>
0

> <Unfavorable A:THR173>
0

> <Unfavorable A:ARG174>
0

> <Unfavorable A:SER183>
0

> <Unfavorable A:THR184>
0

> <Unfavorable A:PHE186>
0

> <Unfavorable A:SER244>
0

> <Unfavorable A:SER254>
0

> <Unfavorable A:GLU255>
0

> <Unfavorable A:SER265>
0

> <Unfavorable A:GLN266>
0

> <Unfavorable A:GLY269>
0

> <Charge A:ARG55>
0

> <Charge A:PHE76>
0

> <Charge A:GLU79>
0

> <Charge A:PHE82>
0

> <Charge A:ARG83>
0

> <Charge A:TRP89>
0

> <Charge A:HIS94>
0

> <Charge A:TRP98>
0

> <Charge A:TYR159>
0

> <Charge A:ARG161>
0

> <Charge A:LYS163>
0

> <Charge A:ASP168>
0

> <Charge A:PHE172>
0

> <Charge A:ARG174>
0

> <Charge A:PHE175>
0

> <Charge A:PHE188>
0

> <Charge A:PHE247>
0

> <Charge A:PHE248>
0

> <Hydrophobic A:LEU58>
0

> <Hydrophobic A:LEU61>
0

> <Hydrophobic A:ILE62>
0

> <Hydrophobic A:TRP66>
0

> <Hydrophobic A:VAL70>
0

> <Hydrophobic A:PRO73>
0

> <Hydrophobic A:ALA74>
0

> <Hydrophobic A:PHE76>
0

> <Hydrophobic A:ALA77>
0

> <Hydrophobic A:THR78>
0

> <Hydrophobic A:PHE82>
0

> <Hydrophobic A:ARG83>
0

> <Hydrophobic A:LEU85>
0

> <Hydrophobic A:TRP89>
0

> <Hydrophobic A:THR90>
0

> <Hydrophobic A:ASN93>
0

> <Hydrophobic A:HIS94>
0

> <Hydrophobic A:VAL97>
1

> <Hydrophobic A:TRP98>
0

> <Hydrophobic A:PHE140>
0

> <Hydrophobic A:LEU141>
0

> <Hydrophobic A:ILE148>
0

> <Hydrophobic A:ILE150>
0

> <Hydrophobic A:HIS151>
0

> <Hydrophobic A:ILE152>
0

> <Hydrophobic A:ALA154>
0

> <Hydrophobic A:SER155>
0

> <Hydrophobic A:ILE156>
0

> <Hydrophobic A:GLY158>
0

> <Hydrophobic A:TYR159>
0

> <Hydrophobic A:ARG160>
0

> <Hydrophobic A:ARG161>
0

> <Hydrophobic A:ASP168>
0

> <Hydrophobic A:ASN171>
0

> <Hydrophobic A:PHE172>
0

> <Hydrophobic A:ARG174>
0

> <Hydrophobic A:PHE175>
0

> <Hydrophobic A:LEU178>
0

> <Hydrophobic A:ILE179>
0

> <Hydrophobic A:VAL180>
0

> <Hydrophobic A:LEU181>
0

> <Hydrophobic A:PHE186>
0

> <Hydrophobic A:ILE187>
1

> <Hydrophobic A:PHE188>
0

> <Hydrophobic A:ILE189>
0

> <Hydrophobic A:PRO190>
0

> <Hydrophobic A:PHE191>
0

> <Hydrophobic A:TYR240>
0

> <Hydrophobic A:PHE243>
0

> <Hydrophobic A:PHE247>
3

> <Hydrophobic A:PHE248>
0

> <Hydrophobic A:VAL251>
0

> <Hydrophobic A:TRP252>
0

> <Hydrophobic A:SER254>
0

> <Hydrophobic A:LEU261>
0

> <Hydrophobic A:ILE262>
0

> <Hydrophobic A:ILE263>
0

> <Hydrophobic A:TYR272>
1

> <Hydrophobic A:PRO273>
0

> <HydrogenBond A:LYS6>
0

> <HydrogenBond A:ARG55>
0

> <HydrogenBond A:GLY64>
0

> <HydrogenBond A:SER65>
0

> <HydrogenBond A:TRP66>
0

> <HydrogenBond A:SER69>
0

> <HydrogenBond A:PRO73>
0

> <HydrogenBond A:ALA74>
0

> <HydrogenBond A:PHE76>
0

> <HydrogenBond A:ALA77>
0

> <HydrogenBond A:THR78>
0

> <HydrogenBond A:GLU79>
0

> <HydrogenBond A:PHE82>
0

> <HydrogenBond A:ARG83>
0

> <HydrogenBond A:LEU85>
0

> <HydrogenBond A:THR86>
0

> <HydrogenBond A:TRP89>
0

> <HydrogenBond A:THR90>
0

> <HydrogenBond A:ASN93>
0

> <HydrogenBond A:HIS94>
0

> <HydrogenBond A:SER96>
0

> <HydrogenBond A:TRP98>
0

> <HydrogenBond A:ASN144>
0

> <HydrogenBond A:HIS151>
0

> <HydrogenBond A:ILE152>
0

> <HydrogenBond A:ALA154>
0

> <HydrogenBond A:SER155>
0

> <HydrogenBond A:ILE156>
0

> <HydrogenBond A:GLY158>
0

> <HydrogenBond A:TYR159>
0

> <HydrogenBond A:ASN162>
0

> <HydrogenBond A:LYS163>
0

> <HydrogenBond A:SER167>
0

> <HydrogenBond A:ASP168>
0

> <HydrogenBond A:SER169>
0

> <HydrogenBond A:ASN171>
0

> <HydrogenBond A:PHE172>
0

> <HydrogenBond A:THR173>
0

> <HydrogenBond A:ARG174>
0

> <HydrogenBond A:PHE175>
0

> <HydrogenBond A:SER176>
0

> <HydrogenBond A:SER177>
0

> <HydrogenBond A:ILE179>
0

> <HydrogenBond A:VAL180>
0

> <HydrogenBond A:SER183>
0

> <HydrogenBond A:THR184>
0

> <HydrogenBond A:PHE186>
0

> <HydrogenBond A:ILE187>
0

> <HydrogenBond A:PRO190>
0

> <HydrogenBond A:TYR240>
0

> <HydrogenBond A:PHE243>
1

> <HydrogenBond A:SER244>
2

> <HydrogenBond A:PHE247>
0

> <HydrogenBond A:VAL251>
0

> <HydrogenBond A:SER254>
0

> <HydrogenBond A:GLU255>
0

> <HydrogenBond A:ARG256>
0

> <HydrogenBond A:LEU257>
0

> <HydrogenBond A:GLU258>
0

> <HydrogenBond A:GLU259>
0

> <HydrogenBond A:ILE262>
0

> <HydrogenBond A:SER265>
0

> <HydrogenBond A:GLN266>
0

> <HydrogenBond A:MET268>
0

> <HydrogenBond A:GLY269>
1

> <HydrogenBond A:PRO273>
0

> <Other A:SER69>
0

> <Other A:TRP89>
0

> <Other A:TYR159>
0

> <Other A:PHE172>
0

> <Other A:SER176>
0

> <Other A:SER265>
0

$$$$
6057
  SciTegic09122300493D

 24 24  0  0  0  0            999 V2000
    9.3553    8.3688   -6.5023 O   0  5  0  1  0  0
    6.1809   10.8320    0.9697 O   0  0  0  1  0  0
   10.0146   10.0584   -5.3464 O   0  0  0  1  0  0
    9.4344    9.0158   -3.1364 N   0  3  0  1  0  0
    7.1669    8.9720   -4.2454 C   0  0  0  1  0  0
    8.6405    8.5037   -4.2433 C   0  0  1  1  0  0
    6.7259    9.4262   -2.8860 C   0  0  0  1  0  0
    6.7559   10.7813   -2.6076 C   0  0  0  1  0  0
    6.3861    8.5369   -1.8739 C   0  0  0  1  0  0
    9.3783    9.0133   -5.4707 C   0  0  0  1  0  0
    6.6217   11.2374   -1.3114 C   0  0  0  1  0  0
    6.1674    9.0016   -0.5813 C   0  0  0  1  0  0
    6.3291   10.3475   -0.3015 C   0  0  0  1  0  0
    7.0406   11.0092    1.3413 H   0  0
    8.8404    9.4609   -2.4134 H   0  0
   10.0277    9.7278   -3.6159 H   0  0
   10.0738    8.3165   -2.7063 H   0  0
    6.5088    8.2114   -4.6477 H   0  0
    7.0160    9.8117   -4.9151 H   0  0
    8.6870    7.4173   -4.2311 H   0  0
    6.8754   11.4723   -3.4233 H   0  0
    6.3116    7.4775   -2.0685 H   0  0
    6.7204   12.2892   -1.0841 H   0  0
    5.9060    8.3164    0.2122 H   0  0
  1 10  1  0
  2 13  1  0
  3 10  2  0
  4  6  1  0
  5  6  1  0
  5  7  1  0
  6 10  1  0
  7  8  2  0
  7  9  1  0
  8 11  1  0
  9 12  2  0
 11 13  2  0
 12 13  1  0
  2 14  1  0
  4 15  1  0
  4 16  1  0
  4 17  1  0
  5 18  1  0
  5 19  1  0
  6 20  1  0
  8 21  1  0
  9 22  1  0
 11 23  1  0
 12 24  1  0
M  CHG  2   1  -1   4   1
M  END
> <Name>
6057

> <Binding Energy>
-23.9971

> <Ligand Energy>
-104.1614

> <Protein Energy>
-7801.1566

> <Complex Energy>
-7929.3151

> <Complex Entropy>
-31.4772

> <Protein Entropy>
-31.4717

> <Ligand Entropy>
-17.9707

> <Entropic Energy>
17.9652

> <AbsoluteEnergy>
15.3187

> <ConfNumber>
3

> <Ionization pH>
7.5

> <IonizationIndex>
1

> <MOL_NUMBER>
10

> <NumberOfIonizations>
1

> <NumberOfStereoisomers>
1

> <NumberOfTautomers>
1

> <PUBCHEM_ATOM_DEF_STEREO_COUNT>
1

> <PUBCHEM_ATOM_UDEF_STEREO_COUNT>
0

> <PUBCHEM_BOND_DEF_STEREO_COUNT>
0

> <PUBCHEM_BOND_UDEF_STEREO_COUNT>
0

> <PUBCHEM_CACTVS_TAUTO_COUNT>
2

> <PUBCHEM_COMPONENT_COUNT>
1

> <PUBCHEM_COMPOUND_CID>
6057

> <PUBCHEM_CONFORMER_DIVERSEORDER>
1
6
7
5
10
2
9
3
4
8

> <PUBCHEM_CONFORMER_ID>
000017A900000001

> <PUBCHEM_CONFORMER_RMSD>
0.6

> <PUBCHEM_COORDINATE_TYPE>
2
5
10

> <PUBCHEM_EFFECTIVE_ROTOR_COUNT>
3

> <PUBCHEM_FEATURE_SELFOVERLAP>
35.579

> <PUBCHEM_HEAVY_ATOM_COUNT>
13

> <PUBCHEM_ISOTOPIC_ATOM_COUNT>
0

> <PUBCHEM_MMFF94_ENERGY>
24.6717

> <PUBCHEM_MMFF94_PARTIAL_CHARGES>
21
1 -0.65
10 0.66
11 -0.15
12 -0.15
13 0.08
17 0.15
18 0.15
19 0.36
2 -0.53
20 0.36
21 0.15
22 0.15
23 0.5
24 0.45
3 -0.57
4 -0.99
5 0.14
6 0.33
7 -0.14
8 -0.15
9 -0.15

> <PUBCHEM_PHARMACOPHORE_FEATURES>
7
1 1 acceptor
1 2 donor
1 3 acceptor
1 4 cation
1 4 donor
3 1 3 10 anion
6 7 8 9 11 12 13 rings

> <PUBCHEM_SHAPE_FINGERPRINT>
11401426 45 18260825969669806040
11769659 78 18341888602140244366
12897270 3 18113612430313781153
12932764 1 18129942394110394737
13296908 3 18273209815755699136
14128692 85 18413106186426960904
14325111 11 18335140912065485488
15775835 57 18114465560973810741
16945 1 18192425496627847928
17844478 74 18042131002144350971
18186145 218 17821725039901998140
19422 9 18339652238544457555
20279233 1 16988554689153481036
20645476 183 18335698308821443519
21119208 17 18408603630292033564
23402539 116 18187363195624195710
23402655 69 18040997289201717828
23552423 10 18334289902945012705
23559900 14 18059850633264985618
23598291 2 17897714375777863563
305870 269 9727642699922544684
3312278 4 18411419475307455705
465052 167 18126856117313195127
7364860 26 18128814329724976200
81228 2 16485866700213349416
93112 12 18335417954599056069
9939556 21 18408885126759599821

> <PUBCHEM_SHAPE_MULTIPOLES>
244.94
6.02
1.6
0.87
0.36
0.04
0.03
-1.03
-0.95
-0.57
-0.12
-0.03
-0.09
-0.3

> <PUBCHEM_SHAPE_SELFOVERLAP>
506.139

> <PUBCHEM_SHAPE_VOLUME>
140.1

> <RelativeEnergy>
0.171872

> <StereoisomerIndex>
1

> <TautomerIndex>
1

> <POSE_NUMBER>
1

> <LibDockScore>
95.8254

> <HotSpots>
9.81,9.87,-3.46,P,67,4
6.61,10.07,-1.25,A,54,9
8.41,8.07,-4.86,A,38,10

> <-In-Situ Starting Energy>
-25.4906615

> <-In-Situ Final Energy>
78.1381013

> <In-Situ Gradient>
0.0008752925435

> <Favorable Total>
12

> <Unfavorable Total>
1

> <Charge Total>
0

> <Hydrophobic Total>
3

> <HydrogenBond Total>
9

> <Other Total>
0

> <Favorable A:LYS6>
0

> <Favorable A:ARG55>
0

> <Favorable A:LEU58>
0

> <Favorable A:LEU61>
0

> <Favorable A:ILE62>
0

> <Favorable A:GLY64>
0

> <Favorable A:SER65>
0

> <Favorable A:TRP66>
0

> <Favorable A:SER69>
0

> <Favorable A:VAL70>
0

> <Favorable A:PRO73>
0

> <Favorable A:ALA74>
0

> <Favorable A:PHE76>
0

> <Favorable A:ALA77>
0

> <Favorable A:THR78>
0

> <Favorable A:GLU79>
0

> <Favorable A:PHE82>
0

> <Favorable A:ARG83>
0

> <Favorable A:LEU85>
0

> <Favorable A:THR86>
0

> <Favorable A:TRP89>
1

> <Favorable A:THR90>
2

> <Favorable A:ASN93>
1

> <Favorable A:HIS94>
0

> <Favorable A:SER96>
0

> <Favorable A:VAL97>
1

> <Favorable A:TRP98>
1

> <Favorable A:PHE140>
0

> <Favorable A:LEU141>
0

> <Favorable A:ASN144>
1

> <Favorable A:ILE148>
0

> <Favorable A:ILE150>
0

> <Favorable A:HIS151>
0

> <Favorable A:ILE152>
0

> <Favorable A:ALA154>
0

> <Favorable A:SER155>
0

> <Favorable A:ILE156>
0

> <Favorable A:GLY158>
0

> <Favorable A:TYR159>
0

> <Favorable A:ARG160>
0

> <Favorable A:ARG161>
0

> <Favorable A:ASN162>
0

> <Favorable A:LYS163>
0

> <Favorable A:SER167>
0

> <Favorable A:ASP168>
0

> <Favorable A:SER169>
0

> <Favorable A:ASN171>
0

> <Favorable A:PHE172>
0

> <Favorable A:THR173>
0

> <Favorable A:ARG174>
0

> <Favorable A:PHE175>
0

> <Favorable A:SER176>
0

> <Favorable A:SER177>
0

> <Favorable A:LEU178>
0

> <Favorable A:ILE179>
0

> <Favorable A:VAL180>
0

> <Favorable A:LEU181>
0

> <Favorable A:SER183>
3

> <Favorable A:THR184>
0

> <Favorable A:PHE186>
1

> <Favorable A:ILE187>
1

> <Favorable A:PHE188>
0

> <Favorable A:ILE189>
0

> <Favorable A:PRO190>
0

> <Favorable A:PHE191>
0

> <Favorable A:TYR240>
0

> <Favorable A:PHE243>
0

> <Favorable A:SER244>
0

> <Favorable A:PHE247>
0

> <Favorable A:PHE248>
0

> <Favorable A:VAL251>
0

> <Favorable A:TRP252>
0

> <Favorable A:SER254>
0

> <Favorable A:GLU255>
0

> <Favorable A:ARG256>
0

> <Favorable A:LEU257>
0

> <Favorable A:GLU258>
0

> <Favorable A:GLU259>
0

> <Favorable A:LEU261>
0

> <Favorable A:ILE262>
0

> <Favorable A:ILE263>
0

> <Favorable A:SER265>
0

> <Favorable A:GLN266>
0

> <Favorable A:MET268>
0

> <Favorable A:GLY269>
0

> <Favorable A:TYR272>
0

> <Favorable A:PRO273>
0

> <Unfavorable A:ARG55>
0

> <Unfavorable A:PRO73>
0

> <Unfavorable A:PHE76>
0

> <Unfavorable A:GLU79>
0

> <Unfavorable A:ARG83>
0

> <Unfavorable A:THR86>
0

> <Unfavorable A:TRP89>
0

> <Unfavorable A:THR90>
0

> <Unfavorable A:ASN93>
0

> <Unfavorable A:TRP98>
0

> <Unfavorable A:ASN144>
1

> <Unfavorable A:SER155>
0

> <Unfavorable A:GLY158>
0

> <Unfavorable A:TYR159>
0

> <Unfavorable A:ASN162>
0

> <Unfavorable A:ASP168>
0

> <Unfavorable A:ASN171>
0

> <Unfavorable A:THR173>
0

> <Unfavorable A:ARG174>
0

> <Unfavorable A:SER183>
0

> <Unfavorable A:THR184>
0

> <Unfavorable A:PHE186>
0

> <Unfavorable A:SER244>
0

> <Unfavorable A:SER254>
0

> <Unfavorable A:GLU255>
0

> <Unfavorable A:SER265>
0

> <Unfavorable A:GLN266>
0

> <Unfavorable A:GLY269>
0

> <Charge A:ARG55>
0

> <Charge A:PHE76>
0

> <Charge A:GLU79>
0

> <Charge A:PHE82>
0

> <Charge A:ARG83>
0

> <Charge A:TRP89>
0

> <Charge A:HIS94>
0

> <Charge A:TRP98>
0

> <Charge A:TYR159>
0

> <Charge A:ARG161>
0

> <Charge A:LYS163>
0

> <Charge A:ASP168>
0

> <Charge A:PHE172>
0

> <Charge A:ARG174>
0

> <Charge A:PHE175>
0

> <Charge A:PHE188>
0

> <Charge A:PHE247>
0

> <Charge A:PHE248>
0

> <Hydrophobic A:LEU58>
0

> <Hydrophobic A:LEU61>
0

> <Hydrophobic A:ILE62>
0

> <Hydrophobic A:TRP66>
0

> <Hydrophobic A:VAL70>
0

> <Hydrophobic A:PRO73>
0

> <Hydrophobic A:ALA74>
0

> <Hydrophobic A:PHE76>
0

> <Hydrophobic A:ALA77>
0

> <Hydrophobic A:THR78>
0

> <Hydrophobic A:PHE82>
0

> <Hydrophobic A:ARG83>
0

> <Hydrophobic A:LEU85>
0

> <Hydrophobic A:TRP89>
0

> <Hydrophobic A:THR90>
0

> <Hydrophobic A:ASN93>
1

> <Hydrophobic A:HIS94>
0

> <Hydrophobic A:VAL97>
1

> <Hydrophobic A:TRP98>
0

> <Hydrophobic A:PHE140>
0

> <Hydrophobic A:LEU141>
0

> <Hydrophobic A:ILE148>
0

> <Hydrophobic A:ILE150>
0

> <Hydrophobic A:HIS151>
0

> <Hydrophobic A:ILE152>
0

> <Hydrophobic A:ALA154>
0

> <Hydrophobic A:SER155>
0

> <Hydrophobic A:ILE156>
0

> <Hydrophobic A:GLY158>
0

> <Hydrophobic A:TYR159>
0

> <Hydrophobic A:ARG160>
0

> <Hydrophobic A:ARG161>
0

> <Hydrophobic A:ASP168>
0

> <Hydrophobic A:ASN171>
0

> <Hydrophobic A:PHE172>
0

> <Hydrophobic A:ARG174>
0

> <Hydrophobic A:PHE175>
0

> <Hydrophobic A:LEU178>
0

> <Hydrophobic A:ILE179>
0

> <Hydrophobic A:VAL180>
0

> <Hydrophobic A:LEU181>
0

> <Hydrophobic A:PHE186>
0

> <Hydrophobic A:ILE187>
1

> <Hydrophobic A:PHE188>
0

> <Hydrophobic A:ILE189>
0

> <Hydrophobic A:PRO190>
0

> <Hydrophobic A:PHE191>
0

> <Hydrophobic A:TYR240>
0

> <Hydrophobic A:PHE243>
0

> <Hydrophobic A:PHE247>
0

> <Hydrophobic A:PHE248>
0

> <Hydrophobic A:VAL251>
0

> <Hydrophobic A:TRP252>
0

> <Hydrophobic A:SER254>
0

> <Hydrophobic A:LEU261>
0

> <Hydrophobic A:ILE262>
0

> <Hydrophobic A:ILE263>
0

> <Hydrophobic A:TYR272>
0

> <Hydrophobic A:PRO273>
0

> <HydrogenBond A:LYS6>
0

> <HydrogenBond A:ARG55>
0

> <HydrogenBond A:GLY64>
0

> <HydrogenBond A:SER65>
0

> <HydrogenBond A:TRP66>
0

> <HydrogenBond A:SER69>
0

> <HydrogenBond A:PRO73>
0

> <HydrogenBond A:ALA74>
0

> <HydrogenBond A:PHE76>
0

> <HydrogenBond A:ALA77>
0

> <HydrogenBond A:THR78>
0

> <HydrogenBond A:GLU79>
0

> <HydrogenBond A:PHE82>
0

> <HydrogenBond A:ARG83>
0

> <HydrogenBond A:LEU85>
0

> <HydrogenBond A:THR86>
0

> <HydrogenBond A:TRP89>
1

> <HydrogenBond A:THR90>
2

> <HydrogenBond A:ASN93>
0

> <HydrogenBond A:HIS94>
0

> <HydrogenBond A:SER96>
0

> <HydrogenBond A:TRP98>
1

> <HydrogenBond A:ASN144>
1

> <HydrogenBond A:HIS151>
0

> <HydrogenBond A:ILE152>
0

> <HydrogenBond A:ALA154>
0

> <HydrogenBond A:SER155>
0

> <HydrogenBond A:ILE156>
0

> <HydrogenBond A:GLY158>
0

> <HydrogenBond A:TYR159>
0

> <HydrogenBond A:ASN162>
0

> <HydrogenBond A:LYS163>
0

> <HydrogenBond A:SER167>
0

> <HydrogenBond A:ASP168>
0

> <HydrogenBond A:SER169>
0

> <HydrogenBond A:ASN171>
0

> <HydrogenBond A:PHE172>
0

> <HydrogenBond A:THR173>
0

> <HydrogenBond A:ARG174>
0

> <HydrogenBond A:PHE175>
0

> <HydrogenBond A:SER176>
0

> <HydrogenBond A:SER177>
0

> <HydrogenBond A:ILE179>
0

> <HydrogenBond A:VAL180>
0

> <HydrogenBond A:SER183>
3

> <HydrogenBond A:THR184>
0

> <HydrogenBond A:PHE186>
1

> <HydrogenBond A:ILE187>
0

> <HydrogenBond A:PRO190>
0

> <HydrogenBond A:TYR240>
0

> <HydrogenBond A:PHE243>
0

> <HydrogenBond A:SER244>
0

> <HydrogenBond A:PHE247>
0

> <HydrogenBond A:VAL251>
0

> <HydrogenBond A:SER254>
0

> <HydrogenBond A:GLU255>
0

> <HydrogenBond A:ARG256>
0

> <HydrogenBond A:LEU257>
0

> <HydrogenBond A:GLU258>
0

> <HydrogenBond A:GLU259>
0

> <HydrogenBond A:ILE262>
0

> <HydrogenBond A:SER265>
0

> <HydrogenBond A:GLN266>
0

> <HydrogenBond A:MET268>
0

> <HydrogenBond A:GLY269>
0

> <HydrogenBond A:PRO273>
0

> <Other A:SER69>
0

> <Other A:TRP89>
0

> <Other A:TYR159>
0

> <Other A:PHE172>
0

> <Other A:SER176>
0

> <Other A:SER265>
0

$$$$
6305
  SciTegic09122300493D

 27 28  0  0  0  0            999 V2000
    9.7466    2.6160    3.0664 O   0  5  0  1  0  0
    7.7343    3.2956    3.4778 O   0  0  0  1  0  0
    5.4861   -0.2440   -1.1360 N   0  0  0  1  0  0
    8.6786    0.9810    1.3909 N   0  3  0  1  0  0
    6.4088    1.4910   -0.0656 C   0  0  0  1  0  0
    6.7180    2.4714    1.0321 C   0  0  0  1  0  0
    6.8782    1.5110   -1.4227 C   0  0  0  1  0  0
    8.2058    2.3420    1.3614 C   0  0  1  1  0  0
    6.2470    0.4310   -2.0754 C   0  0  0  1  0  0
    5.6527    0.3324    0.0752 C   0  0  0  1  0  0
    7.7728    2.2960   -2.0954 C   0  0  0  1  0  0
    6.4902    0.2028   -3.3943 C   0  0  0  1  0  0
    8.5872    2.8367    2.7335 C   0  0  0  1  0  0
    8.1185    1.9750   -3.4058 C   0  0  0  1  0  0
    7.4724    0.9196   -4.0505 C   0  0  0  1  0  0
    5.0119   -1.0781   -1.3643 H   0  0
    8.0166    0.3871    1.9224 H   0  0
    9.5513    1.1117    1.9557 H   0  0
    8.8788    0.6157    0.4400 H   0  0
    6.4800    3.4883    0.7205 H   0  0
    6.0889    2.2396    1.8930 H   0  0
    8.8082    2.8732    0.6261 H   0  0
    5.2914   -0.0146    1.0261 H   0  0
    8.2282    3.1453   -1.6104 H   0  0
    5.9447   -0.5504   -3.9360 H   0  0
    8.8677    2.5582   -3.9206 H   0  0
    7.6963    0.6165   -5.0558 H   0  0
  1 13  1  0
  2 13  2  0
  3  9  1  0
  3 10  1  0
  4  8  1  0
  5  6  1  0
  5  7  1  0
  5 10  2  0
  6  8  1  0
  7  9  1  0
  7 11  2  0
  8 13  1  0
  9 12  2  0
 11 14  1  0
 12 15  1  0
 14 15  2  0
  3 16  1  0
  4 17  1  0
  4 18  1  0
  4 19  1  0
  6 20  1  0
  6 21  1  0
  8 22  1  0
 10 23  1  0
 11 24  1  0
 12 25  1  0
 14 26  1  0
 15 27  1  0
M  CHG  2   1  -1   4   1
M  END
> <Name>
6305

> <Binding Energy>
-46.1656

> <Ligand Energy>
-98.6494

> <Protein Energy>
-7801.1566

> <Complex Energy>
-7945.9716

> <Complex Entropy>
-31.4771

> <Protein Entropy>
-31.4717

> <Ligand Entropy>
-18.3031

> <Entropic Energy>
18.2976

> <AbsoluteEnergy>
81.6686

> <ConfNumber>
5

> <Ionization pH>
7.5

> <IonizationIndex>
1

> <MOL_NUMBER>
12

> <NumberOfIonizations>
1

> <NumberOfStereoisomers>
1

> <NumberOfTautomers>
1

> <PUBCHEM_ATOM_DEF_STEREO_COUNT>
1

> <PUBCHEM_ATOM_UDEF_STEREO_COUNT>
0

> <PUBCHEM_BOND_DEF_STEREO_COUNT>
0

> <PUBCHEM_BOND_UDEF_STEREO_COUNT>
0

> <PUBCHEM_CACTVS_TAUTO_COUNT>
1

> <PUBCHEM_COMPONENT_COUNT>
1

> <PUBCHEM_COMPOUND_CID>
6305

> <PUBCHEM_CONFORMER_DIVERSEORDER>
1
8
18
9
4
15
19
14
17
6
16
12
13
10
7
3
11
5
2

> <PUBCHEM_CONFORMER_ID>
000018A100000001

> <PUBCHEM_CONFORMER_RMSD>
0.6

> <PUBCHEM_COORDINATE_TYPE>
2
5
10

> <PUBCHEM_EFFECTIVE_ROTOR_COUNT>
3

> <PUBCHEM_FEATURE_SELFOVERLAP>
45.819

> <PUBCHEM_HEAVY_ATOM_COUNT>
15

> <PUBCHEM_ISOTOPIC_ATOM_COUNT>
0

> <PUBCHEM_MMFF94_ENERGY>
20.3006

> <PUBCHEM_MMFF94_PARTIAL_CHARGES>
23
1 -0.65
10 -0.3
11 -0.15
12 -0.15
13 0.66
14 -0.15
15 -0.15
19 0.15
2 -0.57
20 0.27
21 0.15
22 0.15
23 0.15
24 0.36
25 0.36
26 0.15
27 0.5
3 0.03
4 -0.99
5 -0.18
6 0.18
8 0.33
9 -0.15

> <PUBCHEM_PHARMACOPHORE_FEATURES>
9
1 1 acceptor
1 2 acceptor
1 3 cation
1 3 donor
1 4 cation
1 4 donor
3 1 2 13 anion
5 3 5 7 9 10 rings
6 7 9 11 12 14 15 rings

> <PUBCHEM_SHAPE_FINGERPRINT>
11578080 2 18044063921631987172
12382932 28 18342172297346008739
12553582 1 18339637957620267583
13221675 6 18410296938460187006
13538477 17 18409445856177914860
15001771 113 18337390560110812629
15076042 46 18270116786388370305
15375462 189 18335425724268409835
16752209 62 18340195302926022533
16945 1 18341606031762393341
17804303 29 18056201271877253182
19422 9 18335426712311406226
20442098 301 18341891883389899966
20510252 161 17988370260576517201
20645477 70 17690549106974296535
20871998 184 18202566163648381989
22112679 90 18128831913457911133
22445834 79 18408325471008859442
23236772 104 18333455352113071832
232386 152 18269843171275638837
23388829 49 18338797917777723101
23463225 33 18410860962229259495
23552423 10 17905326578571904349
23559900 14 18272931614193070404
23598294 1 18270408191435270001
2748010 2 17186174063400709389
3312278 4 18335986462239826991
34934 24 18410289241900190429
427121 178 16123918433733439433
7364860 26 17840586221194573353

> <PUBCHEM_SHAPE_MULTIPOLES>
286.99
5.19
2.17
0.99
1.38
0.26
0.17
-1.69
0.1
-0.46
0.05
0.29
-0.14
-0.73

> <PUBCHEM_SHAPE_SELFOVERLAP>
619.038

> <PUBCHEM_SHAPE_VOLUME>
158.4

> <RelativeEnergy>
0.23183

> <StereoisomerIndex>
1

> <TautomerIndex>
1

> <POSE_NUMBER>
1

> <LibDockScore>
89.3472

> <HotSpots>
7.01,-0.53,1.54,A,78,10
8.81,3.67,3.75,A,88,13
7.21,1.27,-2.85,A,46,15

> <-In-Situ Starting Energy>
-499.907625

> <-In-Situ Final Energy>
59.4401313

> <In-Situ Gradient>
0.0008625068701

> <Favorable Total>
7

> <Unfavorable Total>
0

> <Charge Total>
2

> <Hydrophobic Total>
1

> <HydrogenBond Total>
4

> <Other Total>
0

> <Favorable A:LYS6>
0

> <Favorable A:ARG55>
1

> <Favorable A:LEU58>
0

> <Favorable A:LEU61>
0

> <Favorable A:ILE62>
0

> <Favorable A:GLY64>
0

> <Favorable A:SER65>
0

> <Favorable A:TRP66>
0

> <Favorable A:SER69>
0

> <Favorable A:VAL70>
0

> <Favorable A:PRO73>
0

> <Favorable A:ALA74>
0

> <Favorable A:PHE76>
0

> <Favorable A:ALA77>
0

> <Favorable A:THR78>
0

> <Favorable A:GLU79>
0

> <Favorable A:PHE82>
0

> <Favorable A:ARG83>
0

> <Favorable A:LEU85>
0

> <Favorable A:THR86>
0

> <Favorable A:TRP89>
0

> <Favorable A:THR90>
0

> <Favorable A:ASN93>
0

> <Favorable A:HIS94>
0

> <Favorable A:SER96>
0

> <Favorable A:VAL97>
0

> <Favorable A:TRP98>
0

> <Favorable A:PHE140>
0

> <Favorable A:LEU141>
0

> <Favorable A:ASN144>
0

> <Favorable A:ILE148>
0

> <Favorable A:ILE150>
0

> <Favorable A:HIS151>
0

> <Favorable A:ILE152>
0

> <Favorable A:ALA154>
0

> <Favorable A:SER155>
0

> <Favorable A:ILE156>
0

> <Favorable A:GLY158>
0

> <Favorable A:TYR159>
0

> <Favorable A:ARG160>
0

> <Favorable A:ARG161>
0

> <Favorable A:ASN162>
0

> <Favorable A:LYS163>
0

> <Favorable A:SER167>
0

> <Favorable A:ASP168>
0

> <Favorable A:SER169>
0

> <Favorable A:ASN171>
0

> <Favorable A:PHE172>
0

> <Favorable A:THR173>
0

> <Favorable A:ARG174>
0

> <Favorable A:PHE175>
0

> <Favorable A:SER176>
0

> <Favorable A:SER177>
0

> <Favorable A:LEU178>
0

> <Favorable A:ILE179>
0

> <Favorable A:VAL180>
0

> <Favorable A:LEU181>
0

> <Favorable A:SER183>
0

> <Favorable A:THR184>
0

> <Favorable A:PHE186>
0

> <Favorable A:ILE187>
0

> <Favorable A:PHE188>
0

> <Favorable A:ILE189>
0

> <Favorable A:PRO190>
0

> <Favorable A:PHE191>
0

> <Favorable A:TYR240>
0

> <Favorable A:PHE243>
0

> <Favorable A:SER244>
3

> <Favorable A:PHE247>
1

> <Favorable A:PHE248>
1

> <Favorable A:VAL251>
0

> <Favorable A:TRP252>
0

> <Favorable A:SER254>
0

> <Favorable A:GLU255>
0

> <Favorable A:ARG256>
0

> <Favorable A:LEU257>
0

> <Favorable A:GLU258>
0

> <Favorable A:GLU259>
0

> <Favorable A:LEU261>
0

> <Favorable A:ILE262>
0

> <Favorable A:ILE263>
0

> <Favorable A:SER265>
0

> <Favorable A:GLN266>
0

> <Favorable A:MET268>
0

> <Favorable A:GLY269>
1

> <Favorable A:TYR272>
0

> <Favorable A:PRO273>
0

> <Unfavorable A:ARG55>
0

> <Unfavorable A:PRO73>
0

> <Unfavorable A:PHE76>
0

> <Unfavorable A:GLU79>
0

> <Unfavorable A:ARG83>
0

> <Unfavorable A:THR86>
0

> <Unfavorable A:TRP89>
0

> <Unfavorable A:THR90>
0

> <Unfavorable A:ASN93>
0

> <Unfavorable A:TRP98>
0

> <Unfavorable A:ASN144>
0

> <Unfavorable A:SER155>
0

> <Unfavorable A:GLY158>
0

> <Unfavorable A:TYR159>
0

> <Unfavorable A:ASN162>
0

> <Unfavorable A:ASP168>
0

> <Unfavorable A:ASN171>
0

> <Unfavorable A:THR173>
0

> <Unfavorable A:ARG174>
0

> <Unfavorable A:SER183>
0

> <Unfavorable A:THR184>
0

> <Unfavorable A:PHE186>
0

> <Unfavorable A:SER244>
0

> <Unfavorable A:SER254>
0

> <Unfavorable A:GLU255>
0

> <Unfavorable A:SER265>
0

> <Unfavorable A:GLN266>
0

> <Unfavorable A:GLY269>
0

> <Charge A:ARG55>
1

> <Charge A:PHE76>
0

> <Charge A:GLU79>
0

> <Charge A:PHE82>
0

> <Charge A:ARG83>
0

> <Charge A:TRP89>
0

> <Charge A:HIS94>
0

> <Charge A:TRP98>
0

> <Charge A:TYR159>
0

> <Charge A:ARG161>
0

> <Charge A:LYS163>
0

> <Charge A:ASP168>
0

> <Charge A:PHE172>
0

> <Charge A:ARG174>
0

> <Charge A:PHE175>
0

> <Charge A:PHE188>
0

> <Charge A:PHE247>
0

> <Charge A:PHE248>
1

> <Hydrophobic A:LEU58>
0

> <Hydrophobic A:LEU61>
0

> <Hydrophobic A:ILE62>
0

> <Hydrophobic A:TRP66>
0

> <Hydrophobic A:VAL70>
0

> <Hydrophobic A:PRO73>
0

> <Hydrophobic A:ALA74>
0

> <Hydrophobic A:PHE76>
0

> <Hydrophobic A:ALA77>
0

> <Hydrophobic A:THR78>
0

> <Hydrophobic A:PHE82>
0

> <Hydrophobic A:ARG83>
0

> <Hydrophobic A:LEU85>
0

> <Hydrophobic A:TRP89>
0

> <Hydrophobic A:THR90>
0

> <Hydrophobic A:ASN93>
0

> <Hydrophobic A:HIS94>
0

> <Hydrophobic A:VAL97>
0

> <Hydrophobic A:TRP98>
0

> <Hydrophobic A:PHE140>
0

> <Hydrophobic A:LEU141>
0

> <Hydrophobic A:ILE148>
0

> <Hydrophobic A:ILE150>
0

> <Hydrophobic A:HIS151>
0

> <Hydrophobic A:ILE152>
0

> <Hydrophobic A:ALA154>
0

> <Hydrophobic A:SER155>
0

> <Hydrophobic A:ILE156>
0

> <Hydrophobic A:GLY158>
0

> <Hydrophobic A:TYR159>
0

> <Hydrophobic A:ARG160>
0

> <Hydrophobic A:ARG161>
0

> <Hydrophobic A:ASP168>
0

> <Hydrophobic A:ASN171>
0

> <Hydrophobic A:PHE172>
0

> <Hydrophobic A:ARG174>
0

> <Hydrophobic A:PHE175>
0

> <Hydrophobic A:LEU178>
0

> <Hydrophobic A:ILE179>
0

> <Hydrophobic A:VAL180>
0

> <Hydrophobic A:LEU181>
0

> <Hydrophobic A:PHE186>
0

> <Hydrophobic A:ILE187>
0

> <Hydrophobic A:PHE188>
0

> <Hydrophobic A:ILE189>
0

> <Hydrophobic A:PRO190>
0

> <Hydrophobic A:PHE191>
0

> <Hydrophobic A:TYR240>
0

> <Hydrophobic A:PHE243>
0

> <Hydrophobic A:PHE247>
1

> <Hydrophobic A:PHE248>
0

> <Hydrophobic A:VAL251>
0

> <Hydrophobic A:TRP252>
0

> <Hydrophobic A:SER254>
0

> <Hydrophobic A:LEU261>
0

> <Hydrophobic A:ILE262>
0

> <Hydrophobic A:ILE263>
0

> <Hydrophobic A:TYR272>
0

> <Hydrophobic A:PRO273>
0

> <HydrogenBond A:LYS6>
0

> <HydrogenBond A:ARG55>
0

> <HydrogenBond A:GLY64>
0

> <HydrogenBond A:SER65>
0

> <HydrogenBond A:TRP66>
0

> <HydrogenBond A:SER69>
0

> <HydrogenBond A:PRO73>
0

> <HydrogenBond A:ALA74>
0

> <HydrogenBond A:PHE76>
0

> <HydrogenBond A:ALA77>
0

> <HydrogenBond A:THR78>
0

> <HydrogenBond A:GLU79>
0

> <HydrogenBond A:PHE82>
0

> <HydrogenBond A:ARG83>
0

> <HydrogenBond A:LEU85>
0

> <HydrogenBond A:THR86>
0

> <HydrogenBond A:TRP89>
0

> <HydrogenBond A:THR90>
0

> <HydrogenBond A:ASN93>
0

> <HydrogenBond A:HIS94>
0

> <HydrogenBond A:SER96>
0

> <HydrogenBond A:TRP98>
0

> <HydrogenBond A:ASN144>
0

> <HydrogenBond A:HIS151>
0

> <HydrogenBond A:ILE152>
0

> <HydrogenBond A:ALA154>
0

> <HydrogenBond A:SER155>
0

> <HydrogenBond A:ILE156>
0

> <HydrogenBond A:GLY158>
0

> <HydrogenBond A:TYR159>
0

> <HydrogenBond A:ASN162>
0

> <HydrogenBond A:LYS163>
0

> <HydrogenBond A:SER167>
0

> <HydrogenBond A:ASP168>
0

> <HydrogenBond A:SER169>
0

> <HydrogenBond A:ASN171>
0

> <HydrogenBond A:PHE172>
0

> <HydrogenBond A:THR173>
0

> <HydrogenBond A:ARG174>
0

> <HydrogenBond A:PHE175>
0

> <HydrogenBond A:SER176>
0

> <HydrogenBond A:SER177>
0

> <HydrogenBond A:ILE179>
0

> <HydrogenBond A:VAL180>
0

> <HydrogenBond A:SER183>
0

> <HydrogenBond A:THR184>
0

> <HydrogenBond A:PHE186>
0

> <HydrogenBond A:ILE187>
0

> <HydrogenBond A:PRO190>
0

> <HydrogenBond A:TYR240>
0

> <HydrogenBond A:PHE243>
0

> <HydrogenBond A:SER244>
3

> <HydrogenBond A:PHE247>
0

> <HydrogenBond A:VAL251>
0

> <HydrogenBond A:SER254>
0

> <HydrogenBond A:GLU255>
0

> <HydrogenBond A:ARG256>
0

> <HydrogenBond A:LEU257>
0

> <HydrogenBond A:GLU258>
0

> <HydrogenBond A:GLU259>
0

> <HydrogenBond A:ILE262>
0

> <HydrogenBond A:SER265>
0

> <HydrogenBond A:GLN266>
0

> <HydrogenBond A:MET268>
0

> <HydrogenBond A:GLY269>
1

> <HydrogenBond A:PRO273>
0

> <Other A:SER69>
0

> <Other A:TRP89>
0

> <Other A:TYR159>
0

> <Other A:PHE172>
0

> <Other A:SER176>
0

> <Other A:SER265>
0

$$$$
12038
  SciTegic09122300493D

 25 25  0  0  0  0            999 V2000
    6.9879    3.5673    1.7643 O   0  0  0  1  0  0
    7.8297    2.4063   -3.1080 O   0  0  0  1  0  0
    7.0049   -0.0535   -3.1669 O   0  5  0  1  0  0
    6.8414    1.6389    2.8737 O   0  0  0  1  0  0
    6.9810    1.6726    0.4669 C   0  0  0  1  0  0
    7.4029    1.8007   -1.9225 C   0  0  0  1  0  0
    7.3984    2.3979   -0.6530 C   0  0  0  1  0  0
    6.5383    0.3694    0.3091 C   0  0  0  1  0  0
    6.9622    0.4924   -2.0667 C   0  0  0  1  0  0
    6.5093   -0.1984   -0.9515 C   0  0  0  1  0  0
    6.9503    2.2504    1.8147 C   0  0  0  1  0  0
    6.6131    4.2610    2.9496 C   0  0  0  1  0  0
    7.7816    4.4020    3.9106 C   0  0  0  1  0  0
    8.4502    3.6516   -2.9718 C   0  0  0  1  0  0
    7.7291    3.4161   -0.5258 H   0  0
    6.2106   -0.2107    1.1604 H   0  0
    6.1568   -1.2061   -1.0655 H   0  0
    6.2702    5.2393    2.6580 H   0  0
    5.7672    3.7702    3.4193 H   0  0
    8.1082    5.4382    3.9289 H   0  0
    8.6314    3.7778    3.6350 H   0  0
    7.4598    4.1550    4.9206 H   0  0
    9.3007    3.5474   -2.3163 H   0  0
    7.7456    4.3913   -2.5903 H   0  0
    8.8250    3.9890   -3.9366 H   0  0
  1 11  1  0
  1 12  1  0
  2  6  1  0
  2 14  1  0
  3  9  1  0
  4 11  2  0
  5  7  2  0
  5  8  1  0
  5 11  1  0
  6  7  1  0
  6  9  2  0
  8 10  2  0
  9 10  1  0
 12 13  1  0
  7 15  1  0
  8 16  1  0
 10 17  1  0
 12 18  1  0
 12 19  1  0
 13 20  1  0
 13 21  1  0
 13 22  1  0
 14 23  1  0
 14 24  1  0
 14 25  1  0
M  CHG  1   3  -1
M  END
> <Name>
12038

> <Binding Energy>
-13.0473

> <Ligand Energy>
-6.2997

> <Protein Energy>
-7801.1566

> <Complex Energy>
-7820.5037

> <Complex Entropy>
-31.4769

> <Protein Entropy>
-31.4717

> <Ligand Entropy>
-18.2426

> <Entropic Energy>
18.2374

> <AbsoluteEnergy>
26.8355

> <ConfNumber>
7

> <Ionization pH>
8.32_D

> <IonizationIndex>
2

> <MOL_NUMBER>
18

> <NumberOfIonizations>
2

> <NumberOfStereoisomers>
1

> <NumberOfTautomers>
1

> <PUBCHEM_ATOM_DEF_STEREO_COUNT>
0

> <PUBCHEM_ATOM_UDEF_STEREO_COUNT>
0

> <PUBCHEM_BOND_DEF_STEREO_COUNT>
0

> <PUBCHEM_BOND_UDEF_STEREO_COUNT>
0

> <PUBCHEM_CACTVS_TAUTO_COUNT>
4

> <PUBCHEM_COMPONENT_COUNT>
1

> <PUBCHEM_COMPOUND_CID>
12038

> <PUBCHEM_CONFORMER_DIVERSEORDER>
1
17
18
8
9
24
10
23
25
13
6
20
12
22
2
16
15
11
21
3
7
5
14
4
19

> <PUBCHEM_CONFORMER_ID>
00002F0600000001

> <PUBCHEM_CONFORMER_RMSD>
0.6

> <PUBCHEM_COORDINATE_TYPE>
2
5
10

> <PUBCHEM_EFFECTIVE_ROTOR_COUNT>
4

> <PUBCHEM_FEATURE_SELFOVERLAP>
20.297

> <PUBCHEM_HEAVY_ATOM_COUNT>
14

> <PUBCHEM_ISOTOPIC_ATOM_COUNT>
0

> <PUBCHEM_MMFF94_ENERGY>
43.9192

> <PUBCHEM_MMFF94_PARTIAL_CHARGES>
17
1 -0.43
10 -0.15
11 0.63
12 0.28
14 0.28
15 0.15
16 0.15
17 0.15
2 -0.36
26 0.45
3 -0.53
4 -0.57
5 0.09
6 0.08
7 -0.15
8 -0.15
9 0.08

> <PUBCHEM_PHARMACOPHORE_FEATURES>
4
1 2 acceptor
1 3 donor
1 4 acceptor
6 5 6 7 8 9 10 rings

> <PUBCHEM_SHAPE_FINGERPRINT>
10130415 120 18411698772677666482
10608611 8 18339923843829039065
11471102 20 18411134740698545629
12251169 10 18341327825424574050
13922767 16 18343018870144839153
14115302 16 17604163552990736398
14144814 61 18342182184745781097
14178342 30 17979619449325510386
14325111 11 18411983602556539669
14897335 6 18342175622051538037
15196674 1 18411419523100676429
15375462 189 18040989592868379890
15442244 35 18411982442588491049
16945 1 18268716021765388806
18186145 218 17822286894659929367
18511873 20 18411699876843055011
20645477 70 18411700980412520311
20871998 22 18198909102439355086
212847 35 18272090483302440073
21501502 16 18339919445471265839
21501925 9 18412256212594137986
23402539 116 18131059395351253005
23402655 69 18273212002543022893
23463225 33 18411136935326496566
23552423 10 18191308375866208516
23559900 14 18202285810069520436
2748010 2 18339646757981753582
34934 24 18341609373558127508
5104073 3 18411703209959204187
53812653 166 18200028594065139968
69090 78 18341890810096442959
7364860 26 18343021121034853704

> <PUBCHEM_SHAPE_MULTIPOLES>
264.64
7.68
1.88
0.67
6.68
0.18
-0.05
-0.37
-1.04
-1.18
-0.07
-0.18
-0.08
-0.43

> <PUBCHEM_SHAPE_SELFOVERLAP>
545.104

> <PUBCHEM_SHAPE_VOLUME>
153.2

> <RelativeEnergy>
3.19292

> <StereoisomerIndex>
1

> <TautomerIndex>
1

> <POSE_NUMBER>
1

> <LibDockScore>
66.9788

> <HotSpots>
6.61,-0.93,-0.06,A,65,10
6.61,4.27,3.15,A,86,12
7.81,4.27,4.14,A,90,13

> <-In-Situ Starting Energy>
-3795.24686

> <-In-Situ Final Energy>
22.2204171

> <In-Situ Gradient>
0.0008659237729

> <Favorable Total>
13

> <Unfavorable Total>
0

> <Charge Total>
1

> <Hydrophobic Total>
6

> <HydrogenBond Total>
6

> <Other Total>
0

> <Favorable A:LYS6>
0

> <Favorable A:ARG55>
0

> <Favorable A:LEU58>
0

> <Favorable A:LEU61>
0

> <Favorable A:ILE62>
0

> <Favorable A:GLY64>
0

> <Favorable A:SER65>
0

> <Favorable A:TRP66>
0

> <Favorable A:SER69>
0

> <Favorable A:VAL70>
0

> <Favorable A:PRO73>
0

> <Favorable A:ALA74>
0

> <Favorable A:PHE76>
0

> <Favorable A:ALA77>
0

> <Favorable A:THR78>
0

> <Favorable A:GLU79>
0

> <Favorable A:PHE82>
0

> <Favorable A:ARG83>
0

> <Favorable A:LEU85>
0

> <Favorable A:THR86>
0

> <Favorable A:TRP89>
0

> <Favorable A:THR90>
0

> <Favorable A:ASN93>
1

> <Favorable A:HIS94>
0

> <Favorable A:SER96>
0

> <Favorable A:VAL97>
1

> <Favorable A:TRP98>
0

> <Favorable A:PHE140>
0

> <Favorable A:LEU141>
0

> <Favorable A:ASN144>
0

> <Favorable A:ILE148>
0

> <Favorable A:ILE150>
0

> <Favorable A:HIS151>
0

> <Favorable A:ILE152>
0

> <Favorable A:ALA154>
0

> <Favorable A:SER155>
0

> <Favorable A:ILE156>
0

> <Favorable A:GLY158>
0

> <Favorable A:TYR159>
0

> <Favorable A:ARG160>
0

> <Favorable A:ARG161>
0

> <Favorable A:ASN162>
0

> <Favorable A:LYS163>
0

> <Favorable A:SER167>
0

> <Favorable A:ASP168>
0

> <Favorable A:SER169>
0

> <Favorable A:ASN171>
0

> <Favorable A:PHE172>
0

> <Favorable A:THR173>
0

> <Favorable A:ARG174>
0

> <Favorable A:PHE175>
0

> <Favorable A:SER176>
0

> <Favorable A:SER177>
0

> <Favorable A:LEU178>
0

> <Favorable A:ILE179>
0

> <Favorable A:VAL180>
0

> <Favorable A:LEU181>
0

> <Favorable A:SER183>
0

> <Favorable A:THR184>
0

> <Favorable A:PHE186>
0

> <Favorable A:ILE187>
1

> <Favorable A:PHE188>
0

> <Favorable A:ILE189>
0

> <Favorable A:PRO190>
0

> <Favorable A:PHE191>
1

> <Favorable A:TYR240>
2

> <Favorable A:PHE243>
0

> <Favorable A:SER244>
2

> <Favorable A:PHE247>
2

> <Favorable A:PHE248>
1

> <Favorable A:VAL251>
0

> <Favorable A:TRP252>
0

> <Favorable A:SER254>
0

> <Favorable A:GLU255>
0

> <Favorable A:ARG256>
0

> <Favorable A:LEU257>
0

> <Favorable A:GLU258>
0

> <Favorable A:GLU259>
0

> <Favorable A:LEU261>
0

> <Favorable A:ILE262>
0

> <Favorable A:ILE263>
0

> <Favorable A:SER265>
0

> <Favorable A:GLN266>
0

> <Favorable A:MET268>
0

> <Favorable A:GLY269>
2

> <Favorable A:TYR272>
0

> <Favorable A:PRO273>
0

> <Unfavorable A:ARG55>
0

> <Unfavorable A:PRO73>
0

> <Unfavorable A:PHE76>
0

> <Unfavorable A:GLU79>
0

> <Unfavorable A:ARG83>
0

> <Unfavorable A:THR86>
0

> <Unfavorable A:TRP89>
0

> <Unfavorable A:THR90>
0

> <Unfavorable A:ASN93>
0

> <Unfavorable A:TRP98>
0

> <Unfavorable A:ASN144>
0

> <Unfavorable A:SER155>
0

> <Unfavorable A:GLY158>
0

> <Unfavorable A:TYR159>
0

> <Unfavorable A:ASN162>
0

> <Unfavorable A:ASP168>
0

> <Unfavorable A:ASN171>
0

> <Unfavorable A:THR173>
0

> <Unfavorable A:ARG174>
0

> <Unfavorable A:SER183>
0

> <Unfavorable A:THR184>
0

> <Unfavorable A:PHE186>
0

> <Unfavorable A:SER244>
0

> <Unfavorable A:SER254>
0

> <Unfavorable A:GLU255>
0

> <Unfavorable A:SER265>
0

> <Unfavorable A:GLN266>
0

> <Unfavorable A:GLY269>
0

> <Charge A:ARG55>
0

> <Charge A:PHE76>
0

> <Charge A:GLU79>
0

> <Charge A:PHE82>
0

> <Charge A:ARG83>
0

> <Charge A:TRP89>
0

> <Charge A:HIS94>
0

> <Charge A:TRP98>
0

> <Charge A:TYR159>
0

> <Charge A:ARG161>
0

> <Charge A:LYS163>
0

> <Charge A:ASP168>
0

> <Charge A:PHE172>
0

> <Charge A:ARG174>
0

> <Charge A:PHE175>
0

> <Charge A:PHE188>
0

> <Charge A:PHE247>
1

> <Charge A:PHE248>
0

> <Hydrophobic A:LEU58>
0

> <Hydrophobic A:LEU61>
0

> <Hydrophobic A:ILE62>
0

> <Hydrophobic A:TRP66>
0

> <Hydrophobic A:VAL70>
0

> <Hydrophobic A:PRO73>
0

> <Hydrophobic A:ALA74>
0

> <Hydrophobic A:PHE76>
0

> <Hydrophobic A:ALA77>
0

> <Hydrophobic A:THR78>
0

> <Hydrophobic A:PHE82>
0

> <Hydrophobic A:ARG83>
0

> <Hydrophobic A:LEU85>
0

> <Hydrophobic A:TRP89>
0

> <Hydrophobic A:THR90>
0

> <Hydrophobic A:ASN93>
0

> <Hydrophobic A:HIS94>
0

> <Hydrophobic A:VAL97>
1

> <Hydrophobic A:TRP98>
0

> <Hydrophobic A:PHE140>
0

> <Hydrophobic A:LEU141>
0

> <Hydrophobic A:ILE148>
0

> <Hydrophobic A:ILE150>
0

> <Hydrophobic A:HIS151>
0

> <Hydrophobic A:ILE152>
0

> <Hydrophobic A:ALA154>
0

> <Hydrophobic A:SER155>
0

> <Hydrophobic A:ILE156>
0

> <Hydrophobic A:GLY158>
0

> <Hydrophobic A:TYR159>
0

> <Hydrophobic A:ARG160>
0

> <Hydrophobic A:ARG161>
0

> <Hydrophobic A:ASP168>
0

> <Hydrophobic A:ASN171>
0

> <Hydrophobic A:PHE172>
0

> <Hydrophobic A:ARG174>
0

> <Hydrophobic A:PHE175>
0

> <Hydrophobic A:LEU178>
0

> <Hydrophobic A:ILE179>
0

> <Hydrophobic A:VAL180>
0

> <Hydrophobic A:LEU181>
0

> <Hydrophobic A:PHE186>
0

> <Hydrophobic A:ILE187>
1

> <Hydrophobic A:PHE188>
0

> <Hydrophobic A:ILE189>
0

> <Hydrophobic A:PRO190>
0

> <Hydrophobic A:PHE191>
1

> <Hydrophobic A:TYR240>
1

> <Hydrophobic A:PHE243>
0

> <Hydrophobic A:PHE247>
1

> <Hydrophobic A:PHE248>
1

> <Hydrophobic A:VAL251>
0

> <Hydrophobic A:TRP252>
0

> <Hydrophobic A:SER254>
0

> <Hydrophobic A:LEU261>
0

> <Hydrophobic A:ILE262>
0

> <Hydrophobic A:ILE263>
0

> <Hydrophobic A:TYR272>
0

> <Hydrophobic A:PRO273>
0

> <HydrogenBond A:LYS6>
0

> <HydrogenBond A:ARG55>
0

> <HydrogenBond A:GLY64>
0

> <HydrogenBond A:SER65>
0

> <HydrogenBond A:TRP66>
0

> <HydrogenBond A:SER69>
0

> <HydrogenBond A:PRO73>
0

> <HydrogenBond A:ALA74>
0

> <HydrogenBond A:PHE76>
0

> <HydrogenBond A:ALA77>
0

> <HydrogenBond A:THR78>
0

> <HydrogenBond A:GLU79>
0

> <HydrogenBond A:PHE82>
0

> <HydrogenBond A:ARG83>
0

> <HydrogenBond A:LEU85>
0

> <HydrogenBond A:THR86>
0

> <HydrogenBond A:TRP89>
0

> <HydrogenBond A:THR90>
0

> <HydrogenBond A:ASN93>
1

> <HydrogenBond A:HIS94>
0

> <HydrogenBond A:SER96>
0

> <HydrogenBond A:TRP98>
0

> <HydrogenBond A:ASN144>
0

> <HydrogenBond A:HIS151>
0

> <HydrogenBond A:ILE152>
0

> <HydrogenBond A:ALA154>
0

> <HydrogenBond A:SER155>
0

> <HydrogenBond A:ILE156>
0

> <HydrogenBond A:GLY158>
0

> <HydrogenBond A:TYR159>
0

> <HydrogenBond A:ASN162>
0

> <HydrogenBond A:LYS163>
0

> <HydrogenBond A:SER167>
0

> <HydrogenBond A:ASP168>
0

> <HydrogenBond A:SER169>
0

> <HydrogenBond A:ASN171>
0

> <HydrogenBond A:PHE172>
0

> <HydrogenBond A:THR173>
0

> <HydrogenBond A:ARG174>
0

> <HydrogenBond A:PHE175>
0

> <HydrogenBond A:SER176>
0

> <HydrogenBond A:SER177>
0

> <HydrogenBond A:ILE179>
0

> <HydrogenBond A:VAL180>
0

> <HydrogenBond A:SER183>
0

> <HydrogenBond A:THR184>
0

> <HydrogenBond A:PHE186>
0

> <HydrogenBond A:ILE187>
0

> <HydrogenBond A:PRO190>
0

> <HydrogenBond A:TYR240>
1

> <HydrogenBond A:PHE243>
0

> <HydrogenBond A:SER244>
2

> <HydrogenBond A:PHE247>
0

> <HydrogenBond A:VAL251>
0

> <HydrogenBond A:SER254>
0

> <HydrogenBond A:GLU255>
0

> <HydrogenBond A:ARG256>
0

> <HydrogenBond A:LEU257>
0

> <HydrogenBond A:GLU258>
0

> <HydrogenBond A:GLU259>
0

> <HydrogenBond A:ILE262>
0

> <HydrogenBond A:SER265>
0

> <HydrogenBond A:GLN266>
0

> <HydrogenBond A:MET268>
0

> <HydrogenBond A:GLY269>
2

> <HydrogenBond A:PRO273>
0

> <Other A:SER69>
0

> <Other A:TRP89>
0

> <Other A:TYR159>
0

> <Other A:PHE172>
0

> <Other A:SER176>
0

> <Other A:SER265>
0

$$$$
13250
  SciTegic09122300493D

 23 23  0  0  0  0            999 V2000
    7.0999    9.1247   -1.9090 O   0  0  0  1  0  0
   10.1853    9.2629   -6.7153 O   0  5  0  1  0  0
    8.6987    5.3694   -4.7477 O   0  0  0  1  0  0
   10.4433    6.8661   -6.6096 O   0  0  0  1  0  0
    7.1517   10.9992   -3.1179 O   0  0  0  1  0  0
    8.0763    8.9319   -3.9599 C   0  0  0  1  0  0
    7.9117    7.5637   -3.9900 C   0  0  0  1  0  0
    8.9624    9.4494   -4.8581 C   0  0  0  1  0  0
    9.5241    8.7255   -5.8342 C   0  0  0  1  0  0
    8.6569    6.7521   -4.8666 C   0  0  0  1  0  0
    9.4887    7.3817   -5.7742 C   0  0  0  1  0  0
    7.3958    9.8038   -2.9964 C   0  0  0  1  0  0
    6.5002    9.8289   -0.8274 C   0  0  0  1  0  0
    5.6935    8.8264   -0.0244 C   0  0  0  1  0  0
    7.9914    5.0208   -4.2188 H   0  0
   10.7543    7.7313   -6.9703 H   0  0
    7.3485    7.1544   -3.1690 H   0  0
    9.2768   10.4297   -4.9893 H   0  0
    7.2808   10.2798   -0.2152 H   0  0
    5.8439   10.6225   -1.1915 H   0  0
    6.3343    8.1760    0.5671 H   0  0
    5.1401    8.1980   -0.7198 H   0  0
    4.9909    9.3225    0.6445 H   0  0
  1 12  1  0
  1 13  1  0
  2  9  1  0
  3 10  1  0
  4 11  1  0
  5 12  2  0
  6  7  2  0
  6  8  1  0
  6 12  1  0
  7 10  1  0
  8  9  2  0
  9 11  1  0
 10 11  2  0
 13 14  1  0
  3 15  1  0
  4 16  1  0
  7 17  1  0
  8 18  1  0
 13 19  1  0
 13 20  1  0
 14 21  1  0
 14 22  1  0
 14 23  1  0
M  CHG  1   2  -1
M  END
> <Name>
13250

> <Binding Energy>
-77.6921

> <Ligand Energy>
-47.69

> <Protein Energy>
-7801.1566

> <Complex Energy>
-7926.5388

> <Complex Entropy>
-31.4776

> <Protein Entropy>
-31.4717

> <Ligand Entropy>
-18.2391

> <Entropic Energy>
18.2332

> <AbsoluteEnergy>
16.4993

> <ConfNumber>
2

> <Ionization pH>
7.5

> <IonizationIndex>
1

> <MOL_NUMBER>
19

> <NumberOfIonizations>
1

> <NumberOfStereoisomers>
1

> <NumberOfTautomers>
2

> <PUBCHEM_ATOM_DEF_STEREO_COUNT>
0

> <PUBCHEM_ATOM_UDEF_STEREO_COUNT>
0

> <PUBCHEM_BOND_DEF_STEREO_COUNT>
0

> <PUBCHEM_BOND_UDEF_STEREO_COUNT>
0

> <PUBCHEM_CACTVS_TAUTO_COUNT>
14

> <PUBCHEM_COMPONENT_COUNT>
1

> <PUBCHEM_COMPOUND_CID>
13250

> <PUBCHEM_CONFORMER_DIVERSEORDER>
1
4
2
3
5
6
7

> <PUBCHEM_CONFORMER_ID>
000033C200000001

> <PUBCHEM_CONFORMER_RMSD>
0.6

> <PUBCHEM_COORDINATE_TYPE>
2
5
10

> <PUBCHEM_EFFECTIVE_ROTOR_COUNT>
3

> <PUBCHEM_FEATURE_SELFOVERLAP>
25.381

> <PUBCHEM_HEAVY_ATOM_COUNT>
14

> <PUBCHEM_ISOTOPIC_ATOM_COUNT>
0

> <PUBCHEM_MMFF94_ENERGY>
31.9185

> <PUBCHEM_MMFF94_PARTIAL_CHARGES>
18
1 -0.43
10 0.08
11 0.08
12 0.63
13 0.28
15 0.15
16 0.15
2 -0.53
22 0.45
23 0.45
24 0.45
3 -0.53
4 -0.53
5 -0.57
6 0.09
7 -0.15
8 -0.15
9 0.08

> <PUBCHEM_PHARMACOPHORE_FEATURES>
5
1 2 donor
1 3 donor
1 4 donor
1 5 acceptor
6 6 7 8 9 10 11 rings

> <PUBCHEM_SHAPE_FINGERPRINT>
10130415 120 18335135341424279082
10608611 8 18337389448015125721
10967382 1 18410575067514864740
10980938 120 18409167692710549699
11471102 20 18410289181859968317
116883 192 17984428438333823892
12932764 1 17416406678455468155
13380535 21 18335710497869830311
13380535 76 18411418431941885775
13571099 22 18271810103014635054
13922767 16 18411134702122902673
14144814 61 18412266116730693795
14325111 11 18266458900281540837
14648413 74 18336549429325618889
14897335 6 18412822516917114751
15442244 35 18340206276250881121
15775835 57 18408326613554549767
16945 1 18338797917978001030
18186145 218 18341897347052329253
20606313 2 18411136913635349773
20645477 70 18341049614686636919
20871998 22 18126567808637107246
21501502 16 18337667645705046743
23402539 116 18128805361827662623
23402655 69 18343295943070384389
25 1 18334856129794905062
2748010 2 17761216913839594300
5104073 3 18410012130937080139
528886 8 18411695517182172378
53812653 166 18341327890002005952
63268167 104 18411143540833145800
7364860 26 18342458170785968360
74978 22 18411984684656391011
7832392 63 18341047501393395805

> <PUBCHEM_SHAPE_MULTIPOLES>
258.77
6.83
2.11
0.58
6.36
0.34
0
1.39
-0.01
-0.92
0
0.03
0
0

> <PUBCHEM_SHAPE_SELFOVERLAP>
541.051

> <PUBCHEM_SHAPE_VOLUME>
147.5

> <RelativeEnergy>
0.0380507

> <StereoisomerIndex>
1

> <TautomerIndex>
1

> <POSE_NUMBER>
1

> <LibDockScore>
96.1856

> <HotSpots>
10.01,10.27,-5.66,P,55,2
8.61,9.67,-3.85,A,41,8
5.81,9.67,0.14,A,68,13

> <-In-Situ Starting Energy>
-266.817649

> <-In-Situ Final Energy>
81.4656738

> <In-Situ Gradient>
0.0009852805287

> <Favorable Total>
11

> <Unfavorable Total>
1

> <Charge Total>
0

> <Hydrophobic Total>
6

> <HydrogenBond Total>
5

> <Other Total>
0

> <Favorable A:LYS6>
0

> <Favorable A:ARG55>
0

> <Favorable A:LEU58>
0

> <Favorable A:LEU61>
0

> <Favorable A:ILE62>
0

> <Favorable A:GLY64>
0

> <Favorable A:SER65>
0

> <Favorable A:TRP66>
0

> <Favorable A:SER69>
0

> <Favorable A:VAL70>
0

> <Favorable A:PRO73>
0

> <Favorable A:ALA74>
0

> <Favorable A:PHE76>
0

> <Favorable A:ALA77>
0

> <Favorable A:THR78>
0

> <Favorable A:GLU79>
0

> <Favorable A:PHE82>
0

> <Favorable A:ARG83>
0

> <Favorable A:LEU85>
0

> <Favorable A:THR86>
0

> <Favorable A:TRP89>
1

> <Favorable A:THR90>
2

> <Favorable A:ASN93>
0

> <Favorable A:HIS94>
1

> <Favorable A:SER96>
0

> <Favorable A:VAL97>
1

> <Favorable A:TRP98>
1

> <Favorable A:PHE140>
0

> <Favorable A:LEU141>
0

> <Favorable A:ASN144>
1

> <Favorable A:ILE148>
0

> <Favorable A:ILE150>
0

> <Favorable A:HIS151>
0

> <Favorable A:ILE152>
0

> <Favorable A:ALA154>
0

> <Favorable A:SER155>
0

> <Favorable A:ILE156>
0

> <Favorable A:GLY158>
0

> <Favorable A:TYR159>
0

> <Favorable A:ARG160>
0

> <Favorable A:ARG161>
0

> <Favorable A:ASN162>
0

> <Favorable A:LYS163>
0

> <Favorable A:SER167>
0

> <Favorable A:ASP168>
0

> <Favorable A:SER169>
0

> <Favorable A:ASN171>
0

> <Favorable A:PHE172>
0

> <Favorable A:THR173>
0

> <Favorable A:ARG174>
0

> <Favorable A:PHE175>
0

> <Favorable A:SER176>
0

> <Favorable A:SER177>
0

> <Favorable A:LEU178>
0

> <Favorable A:ILE179>
0

> <Favorable A:VAL180>
0

> <Favorable A:LEU181>
0

> <Favorable A:SER183>
1

> <Favorable A:THR184>
0

> <Favorable A:PHE186>
0

> <Favorable A:ILE187>
2

> <Favorable A:PHE188>
0

> <Favorable A:ILE189>
0

> <Favorable A:PRO190>
1

> <Favorable A:PHE191>
0

> <Favorable A:TYR240>
0

> <Favorable A:PHE243>
0

> <Favorable A:SER244>
0

> <Favorable A:PHE247>
0

> <Favorable A:PHE248>
0

> <Favorable A:VAL251>
0

> <Favorable A:TRP252>
0

> <Favorable A:SER254>
0

> <Favorable A:GLU255>
0

> <Favorable A:ARG256>
0

> <Favorable A:LEU257>
0

> <Favorable A:GLU258>
0

> <Favorable A:GLU259>
0

> <Favorable A:LEU261>
0

> <Favorable A:ILE262>
0

> <Favorable A:ILE263>
0

> <Favorable A:SER265>
0

> <Favorable A:GLN266>
0

> <Favorable A:MET268>
0

> <Favorable A:GLY269>
0

> <Favorable A:TYR272>
0

> <Favorable A:PRO273>
0

> <Unfavorable A:ARG55>
0

> <Unfavorable A:PRO73>
0

> <Unfavorable A:PHE76>
0

> <Unfavorable A:GLU79>
0

> <Unfavorable A:ARG83>
0

> <Unfavorable A:THR86>
0

> <Unfavorable A:TRP89>
0

> <Unfavorable A:THR90>
1

> <Unfavorable A:ASN93>
0

> <Unfavorable A:TRP98>
0

> <Unfavorable A:ASN144>
0

> <Unfavorable A:SER155>
0

> <Unfavorable A:GLY158>
0

> <Unfavorable A:TYR159>
0

> <Unfavorable A:ASN162>
0

> <Unfavorable A:ASP168>
0

> <Unfavorable A:ASN171>
0

> <Unfavorable A:THR173>
0

> <Unfavorable A:ARG174>
0

> <Unfavorable A:SER183>
0

> <Unfavorable A:THR184>
0

> <Unfavorable A:PHE186>
0

> <Unfavorable A:SER244>
0

> <Unfavorable A:SER254>
0

> <Unfavorable A:GLU255>
0

> <Unfavorable A:SER265>
0

> <Unfavorable A:GLN266>
0

> <Unfavorable A:GLY269>
0

> <Charge A:ARG55>
0

> <Charge A:PHE76>
0

> <Charge A:GLU79>
0

> <Charge A:PHE82>
0

> <Charge A:ARG83>
0

> <Charge A:TRP89>
0

> <Charge A:HIS94>
0

> <Charge A:TRP98>
0

> <Charge A:TYR159>
0

> <Charge A:ARG161>
0

> <Charge A:LYS163>
0

> <Charge A:ASP168>
0

> <Charge A:PHE172>
0

> <Charge A:ARG174>
0

> <Charge A:PHE175>
0

> <Charge A:PHE188>
0

> <Charge A:PHE247>
0

> <Charge A:PHE248>
0

> <Hydrophobic A:LEU58>
0

> <Hydrophobic A:LEU61>
0

> <Hydrophobic A:ILE62>
0

> <Hydrophobic A:TRP66>
0

> <Hydrophobic A:VAL70>
0

> <Hydrophobic A:PRO73>
0

> <Hydrophobic A:ALA74>
0

> <Hydrophobic A:PHE76>
0

> <Hydrophobic A:ALA77>
0

> <Hydrophobic A:THR78>
0

> <Hydrophobic A:PHE82>
0

> <Hydrophobic A:ARG83>
0

> <Hydrophobic A:LEU85>
0

> <Hydrophobic A:TRP89>
0

> <Hydrophobic A:THR90>
1

> <Hydrophobic A:ASN93>
0

> <Hydrophobic A:HIS94>
0

> <Hydrophobic A:VAL97>
1

> <Hydrophobic A:TRP98>
1

> <Hydrophobic A:PHE140>
0

> <Hydrophobic A:LEU141>
0

> <Hydrophobic A:ILE148>
0

> <Hydrophobic A:ILE150>
0

> <Hydrophobic A:HIS151>
0

> <Hydrophobic A:ILE152>
0

> <Hydrophobic A:ALA154>
0

> <Hydrophobic A:SER155>
0

> <Hydrophobic A:ILE156>
0

> <Hydrophobic A:GLY158>
0

> <Hydrophobic A:TYR159>
0

> <Hydrophobic A:ARG160>
0

> <Hydrophobic A:ARG161>
0

> <Hydrophobic A:ASP168>
0

> <Hydrophobic A:ASN171>
0

> <Hydrophobic A:PHE172>
0

> <Hydrophobic A:ARG174>
0

> <Hydrophobic A:PHE175>
0

> <Hydrophobic A:LEU178>
0

> <Hydrophobic A:ILE179>
0

> <Hydrophobic A:VAL180>
0

> <Hydrophobic A:LEU181>
0

> <Hydrophobic A:PHE186>
0

> <Hydrophobic A:ILE187>
2

> <Hydrophobic A:PHE188>
0

> <Hydrophobic A:ILE189>
0

> <Hydrophobic A:PRO190>
1

> <Hydrophobic A:PHE191>
0

> <Hydrophobic A:TYR240>
0

> <Hydrophobic A:PHE243>
0

> <Hydrophobic A:PHE247>
0

> <Hydrophobic A:PHE248>
0

> <Hydrophobic A:VAL251>
0

> <Hydrophobic A:TRP252>
0

> <Hydrophobic A:SER254>
0

> <Hydrophobic A:LEU261>
0

> <Hydrophobic A:ILE262>
0

> <Hydrophobic A:ILE263>
0

> <Hydrophobic A:TYR272>
0

> <Hydrophobic A:PRO273>
0

> <HydrogenBond A:LYS6>
0

> <HydrogenBond A:ARG55>
0

> <HydrogenBond A:GLY64>
0

> <HydrogenBond A:SER65>
0

> <HydrogenBond A:TRP66>
0

> <HydrogenBond A:SER69>
0

> <HydrogenBond A:PRO73>
0

> <HydrogenBond A:ALA74>
0

> <HydrogenBond A:PHE76>
0

> <HydrogenBond A:ALA77>
0

> <HydrogenBond A:THR78>
0

> <HydrogenBond A:GLU79>
0

> <HydrogenBond A:PHE82>
0

> <HydrogenBond A:ARG83>
0

> <HydrogenBond A:LEU85>
0

> <HydrogenBond A:THR86>
0

> <HydrogenBond A:TRP89>
1

> <HydrogenBond A:THR90>
1

> <HydrogenBond A:ASN93>
0

> <HydrogenBond A:HIS94>
1

> <HydrogenBond A:SER96>
0

> <HydrogenBond A:TRP98>
0

> <HydrogenBond A:ASN144>
1

> <HydrogenBond A:HIS151>
0

> <HydrogenBond A:ILE152>
0

> <HydrogenBond A:ALA154>
0

> <HydrogenBond A:SER155>
0

> <HydrogenBond A:ILE156>
0

> <HydrogenBond A:GLY158>
0

> <HydrogenBond A:TYR159>
0

> <HydrogenBond A:ASN162>
0

> <HydrogenBond A:LYS163>
0

> <HydrogenBond A:SER167>
0

> <HydrogenBond A:ASP168>
0

> <HydrogenBond A:SER169>
0

> <HydrogenBond A:ASN171>
0

> <HydrogenBond A:PHE172>
0

> <HydrogenBond A:THR173>
0

> <HydrogenBond A:ARG174>
0

> <HydrogenBond A:PHE175>
0

> <HydrogenBond A:SER176>
0

> <HydrogenBond A:SER177>
0

> <HydrogenBond A:ILE179>
0

> <HydrogenBond A:VAL180>
0

> <HydrogenBond A:SER183>
1

> <HydrogenBond A:THR184>
0

> <HydrogenBond A:PHE186>
0

> <HydrogenBond A:ILE187>
0

> <HydrogenBond A:PRO190>
0

> <HydrogenBond A:TYR240>
0

> <HydrogenBond A:PHE243>
0

> <HydrogenBond A:SER244>
0

> <HydrogenBond A:PHE247>
0

> <HydrogenBond A:VAL251>
0

> <HydrogenBond A:SER254>
0

> <HydrogenBond A:GLU255>
0

> <HydrogenBond A:ARG256>
0

> <HydrogenBond A:LEU257>
0

> <HydrogenBond A:GLU258>
0

> <HydrogenBond A:GLU259>
0

> <HydrogenBond A:ILE262>
0

> <HydrogenBond A:SER265>
0

> <HydrogenBond A:GLN266>
0

> <HydrogenBond A:MET268>
0

> <HydrogenBond A:GLY269>
0

> <HydrogenBond A:PRO273>
0

> <Other A:SER69>
0

> <Other A:TRP89>
0

> <Other A:TYR159>
0

> <Other A:PHE172>
0

> <Other A:SER176>
0

> <Other A:SER265>
0

$$$$
20525
  SciTegic09122300493D

 26 26  0  0  0  0            999 V2000
    6.2380    1.5512    3.2692 O   0  0  0  1  0  0
    6.4344    4.1712    2.0126 O   0  0  0  1  0  0
    7.6523   -0.5479   -0.5568 O   0  0  0  1  0  0
    7.8296    1.0967   -2.9207 O   0  0  0  1  0  0
    6.8993    1.7592    2.0618 C   0  0  0  1  0  0
    6.8396    2.9893    1.4107 C   0  0  0  1  0  0
    7.3900    1.8904   -0.6737 C   0  0  0  1  0  0
    7.5654    0.6981    0.0307 C   0  0  0  1  0  0
    7.4899    0.6987    1.4066 C   0  0  0  1  0  0
    7.1010    3.0482    0.0478 C   0  0  0  1  0  0
    7.4475    1.9612   -2.1413 C   0  0  0  1  0  0
    5.8524    0.1982    3.5056 C   0  0  0  1  0  0
    6.9543    4.3937    3.3068 C   0  0  0  1  0  0
    6.5395   -1.3546   -0.1707 C   0  0  0  1  0  0
    7.7194   -0.2164    1.9276 H   0  0
    7.0025    4.0057   -0.4439 H   0  0
    7.0892    2.9187   -2.5088 H   0  0
    6.6923   -0.4252    3.8023 H   0  0
    5.4185   -0.2417    2.6154 H   0  0
    5.1273    0.1374    4.3102 H   0  0
    6.8516    5.4473    3.5685 H   0  0
    8.0111    4.1303    3.3711 H   0  0
    6.3897    3.8355    4.0370 H   0  0
    5.6049   -0.8893   -0.4867 H   0  0
    6.5069   -1.5559    0.8978 H   0  0
    6.5771   -2.3456   -0.6086 H   0  0
  1  5  1  0
  1 12  1  0
  2  6  1  0
  2 13  1  0
  3  8  1  0
  3 14  1  0
  4 11  2  0
  5  6  2  0
  5  9  1  0
  6 10  1  0
  7  8  1  0
  7 10  2  0
  7 11  1  0
  8  9  2  0
  9 15  1  0
 10 16  1  0
 11 17  1  0
 12 18  1  0
 12 19  1  0
 12 20  1  0
 13 21  1  0
 13 22  1  0
 13 23  1  0
 14 24  1  0
 14 25  1  0
 14 26  1  0
M  END
> <Name>
20525

> <Binding Energy>
-20.5333

> <Ligand Energy>
32.4315

> <Protein Energy>
-7801.1566

> <Complex Energy>
-7789.2584

> <Complex Entropy>
-31.4769

> <Protein Entropy>
-31.4717

> <Ligand Entropy>
-18.1734

> <Entropic Energy>
18.1682

> <AbsoluteEnergy>
39.149

> <ConfNumber>
2

> <IonizationIndex>
1

> <MOL_NUMBER>
23

> <NumberOfIonizations>
1

> <NumberOfStereoisomers>
1

> <NumberOfTautomers>
1

> <PUBCHEM_ATOM_DEF_STEREO_COUNT>
0

> <PUBCHEM_ATOM_UDEF_STEREO_COUNT>
0

> <PUBCHEM_BOND_DEF_STEREO_COUNT>
0

> <PUBCHEM_BOND_UDEF_STEREO_COUNT>
0

> <PUBCHEM_CACTVS_TAUTO_COUNT>
1

> <PUBCHEM_COMPONENT_COUNT>
1

> <PUBCHEM_COMPOUND_CID>
20525

> <PUBCHEM_CONFORMER_DIVERSEORDER>
9
8
7
4
6
1
3
10
2
5

> <PUBCHEM_CONFORMER_ID>
0000502D00000009

> <PUBCHEM_CONFORMER_RMSD>
0.6

> <PUBCHEM_COORDINATE_TYPE>
2
5
10

> <PUBCHEM_EFFECTIVE_ROTOR_COUNT>
4

> <PUBCHEM_FEATURE_SELFOVERLAP>
25.378

> <PUBCHEM_HEAVY_ATOM_COUNT>
14

> <PUBCHEM_ISOTOPIC_ATOM_COUNT>
0

> <PUBCHEM_MMFF94_ENERGY>
66.2258

> <PUBCHEM_MMFF94_PARTIAL_CHARGES>
17
1 -0.36
10 -0.15
11 0.42
12 0.28
13 0.28
14 0.28
15 0.15
16 0.15
17 0.06
2 -0.36
3 -0.36
4 -0.57
5 0.08
6 0.08
7 0.09
8 0.08
9 -0.15

> <PUBCHEM_PHARMACOPHORE_FEATURES>
5
1 1 acceptor
1 2 acceptor
1 3 acceptor
1 4 acceptor
6 5 6 7 8 9 10 rings

> <PUBCHEM_SHAPE_FINGERPRINT>
10756046 5 18410857663520283638
10967382 1 17762898771023991691
11206711 2 18123188167248294981
11680986 33 18341044130071032362
12423570 1 16032111162222730680
13380535 21 18339371841309359953
14614273 12 18117263959895627053
14648413 74 18409169878959588898
14993402 34 18050567343909634124
15219459 52 18338798888329548996
16945 1 18410853273989821210
193761 8 18411135857068250099
20510252 161 17910678988006660304
20511035 2 18129929118487659182
20645476 183 17972062273895637254
20671657 1 18336836294708338716
20711985 365 18411414012362541887
21029758 27 17901965044960409916
21501502 16 18410572911409640135
2334 1 18339078293116042851
23402539 116 17622159487741534492
23419403 2 14000074100477218882
23552423 10 18335700563541928826
23558518 356 18334289890033997115
23559900 14 18127128577332944982
2748010 2 18411417323475969295
3060560 45 17905874895529582917
3071541 158 18046068159841395236
43471831 8 18192425501455669234
53812653 11 18122623851378865085
53812653 8 17976258255412486816
57177213 63 18190746538377953564
589210 1 18410572907167621750
68250623 7 18410295830237415714
7364860 26 18413670201848730712
74978 22 18410855417241870406

> <PUBCHEM_SHAPE_MULTIPOLES>
264.64
4.32
3.39
0.67
0.37
1
0.05
-0.67
0.38
-0.36
0.25
0.16
-0.09
-0.57

> <PUBCHEM_SHAPE_SELFOVERLAP>
547.66

> <PUBCHEM_SHAPE_VOLUME>
152.6

> <RelativeEnergy>
0.253457

> <StereoisomerIndex>
1

> <TautomerIndex>
1

> <POSE_NUMBER>
1

> <LibDockScore>
72.8815

> <HotSpots>
7.61,2.87,-1.05,A,58,11
5.81,-0.33,4.34,A,91,12
6.61,-0.93,-0.06,A,65,14

> <-In-Situ Starting Energy>
-137.45078

> <-In-Situ Final Energy>
0.874134385

> <In-Situ Gradient>
0.0009272158808

> <Favorable Total>
8

> <Unfavorable Total>
0

> <Charge Total>
0

> <Hydrophobic Total>
3

> <HydrogenBond Total>
5

> <Other Total>
0

> <Favorable A:LYS6>
0

> <Favorable A:ARG55>
0

> <Favorable A:LEU58>
0

> <Favorable A:LEU61>
0

> <Favorable A:ILE62>
0

> <Favorable A:GLY64>
0

> <Favorable A:SER65>
0

> <Favorable A:TRP66>
0

> <Favorable A:SER69>
0

> <Favorable A:VAL70>
0

> <Favorable A:PRO73>
0

> <Favorable A:ALA74>
0

> <Favorable A:PHE76>
0

> <Favorable A:ALA77>
0

> <Favorable A:THR78>
0

> <Favorable A:GLU79>
0

> <Favorable A:PHE82>
0

> <Favorable A:ARG83>
0

> <Favorable A:LEU85>
0

> <Favorable A:THR86>
0

> <Favorable A:TRP89>
0

> <Favorable A:THR90>
0

> <Favorable A:ASN93>
1

> <Favorable A:HIS94>
0

> <Favorable A:SER96>
0

> <Favorable A:VAL97>
1

> <Favorable A:TRP98>
0

> <Favorable A:PHE140>
0

> <Favorable A:LEU141>
0

> <Favorable A:ASN144>
0

> <Favorable A:ILE148>
0

> <Favorable A:ILE150>
0

> <Favorable A:HIS151>
0

> <Favorable A:ILE152>
0

> <Favorable A:ALA154>
0

> <Favorable A:SER155>
0

> <Favorable A:ILE156>
0

> <Favorable A:GLY158>
0

> <Favorable A:TYR159>
0

> <Favorable A:ARG160>
0

> <Favorable A:ARG161>
0

> <Favorable A:ASN162>
0

> <Favorable A:LYS163>
0

> <Favorable A:SER167>
0

> <Favorable A:ASP168>
0

> <Favorable A:SER169>
0

> <Favorable A:ASN171>
0

> <Favorable A:PHE172>
0

> <Favorable A:THR173>
0

> <Favorable A:ARG174>
0

> <Favorable A:PHE175>
0

> <Favorable A:SER176>
0

> <Favorable A:SER177>
0

> <Favorable A:LEU178>
0

> <Favorable A:ILE179>
0

> <Favorable A:VAL180>
0

> <Favorable A:LEU181>
0

> <Favorable A:SER183>
0

> <Favorable A:THR184>
0

> <Favorable A:PHE186>
0

> <Favorable A:ILE187>
1

> <Favorable A:PHE188>
0

> <Favorable A:ILE189>
0

> <Favorable A:PRO190>
0

> <Favorable A:PHE191>
0

> <Favorable A:TYR240>
1

> <Favorable A:PHE243>
0

> <Favorable A:SER244>
1

> <Favorable A:PHE247>
1

> <Favorable A:PHE248>
0

> <Favorable A:VAL251>
0

> <Favorable A:TRP252>
0

> <Favorable A:SER254>
0

> <Favorable A:GLU255>
0

> <Favorable A:ARG256>
0

> <Favorable A:LEU257>
0

> <Favorable A:GLU258>
0

> <Favorable A:GLU259>
0

> <Favorable A:LEU261>
0

> <Favorable A:ILE262>
0

> <Favorable A:ILE263>
0

> <Favorable A:SER265>
0

> <Favorable A:GLN266>
0

> <Favorable A:MET268>
1

> <Favorable A:GLY269>
1

> <Favorable A:TYR272>
0

> <Favorable A:PRO273>
0

> <Unfavorable A:ARG55>
0

> <Unfavorable A:PRO73>
0

> <Unfavorable A:PHE76>
0

> <Unfavorable A:GLU79>
0

> <Unfavorable A:ARG83>
0

> <Unfavorable A:THR86>
0

> <Unfavorable A:TRP89>
0

> <Unfavorable A:THR90>
0

> <Unfavorable A:ASN93>
0

> <Unfavorable A:TRP98>
0

> <Unfavorable A:ASN144>
0

> <Unfavorable A:SER155>
0

> <Unfavorable A:GLY158>
0

> <Unfavorable A:TYR159>
0

> <Unfavorable A:ASN162>
0

> <Unfavorable A:ASP168>
0

> <Unfavorable A:ASN171>
0

> <Unfavorable A:THR173>
0

> <Unfavorable A:ARG174>
0

> <Unfavorable A:SER183>
0

> <Unfavorable A:THR184>
0

> <Unfavorable A:PHE186>
0

> <Unfavorable A:SER244>
0

> <Unfavorable A:SER254>
0

> <Unfavorable A:GLU255>
0

> <Unfavorable A:SER265>
0

> <Unfavorable A:GLN266>
0

> <Unfavorable A:GLY269>
0

> <Charge A:ARG55>
0

> <Charge A:PHE76>
0

> <Charge A:GLU79>
0

> <Charge A:PHE82>
0

> <Charge A:ARG83>
0

> <Charge A:TRP89>
0

> <Charge A:HIS94>
0

> <Charge A:TRP98>
0

> <Charge A:TYR159>
0

> <Charge A:ARG161>
0

> <Charge A:LYS163>
0

> <Charge A:ASP168>
0

> <Charge A:PHE172>
0

> <Charge A:ARG174>
0

> <Charge A:PHE175>
0

> <Charge A:PHE188>
0

> <Charge A:PHE247>
0

> <Charge A:PHE248>
0

> <Hydrophobic A:LEU58>
0

> <Hydrophobic A:LEU61>
0

> <Hydrophobic A:ILE62>
0

> <Hydrophobic A:TRP66>
0

> <Hydrophobic A:VAL70>
0

> <Hydrophobic A:PRO73>
0

> <Hydrophobic A:ALA74>
0

> <Hydrophobic A:PHE76>
0

> <Hydrophobic A:ALA77>
0

> <Hydrophobic A:THR78>
0

> <Hydrophobic A:PHE82>
0

> <Hydrophobic A:ARG83>
0

> <Hydrophobic A:LEU85>
0

> <Hydrophobic A:TRP89>
0

> <Hydrophobic A:THR90>
0

> <Hydrophobic A:ASN93>
0

> <Hydrophobic A:HIS94>
0

> <Hydrophobic A:VAL97>
1

> <Hydrophobic A:TRP98>
0

> <Hydrophobic A:PHE140>
0

> <Hydrophobic A:LEU141>
0

> <Hydrophobic A:ILE148>
0

> <Hydrophobic A:ILE150>
0

> <Hydrophobic A:HIS151>
0

> <Hydrophobic A:ILE152>
0

> <Hydrophobic A:ALA154>
0

> <Hydrophobic A:SER155>
0

> <Hydrophobic A:ILE156>
0

> <Hydrophobic A:GLY158>
0

> <Hydrophobic A:TYR159>
0

> <Hydrophobic A:ARG160>
0

> <Hydrophobic A:ARG161>
0

> <Hydrophobic A:ASP168>
0

> <Hydrophobic A:ASN171>
0

> <Hydrophobic A:PHE172>
0

> <Hydrophobic A:ARG174>
0

> <Hydrophobic A:PHE175>
0

> <Hydrophobic A:LEU178>
0

> <Hydrophobic A:ILE179>
0

> <Hydrophobic A:VAL180>
0

> <Hydrophobic A:LEU181>
0

> <Hydrophobic A:PHE186>
0

> <Hydrophobic A:ILE187>
1

> <Hydrophobic A:PHE188>
0

> <Hydrophobic A:ILE189>
0

> <Hydrophobic A:PRO190>
0

> <Hydrophobic A:PHE191>
0

> <Hydrophobic A:TYR240>
0

> <Hydrophobic A:PHE243>
0

> <Hydrophobic A:PHE247>
1

> <Hydrophobic A:PHE248>
0

> <Hydrophobic A:VAL251>
0

> <Hydrophobic A:TRP252>
0

> <Hydrophobic A:SER254>
0

> <Hydrophobic A:LEU261>
0

> <Hydrophobic A:ILE262>
0

> <Hydrophobic A:ILE263>
0

> <Hydrophobic A:TYR272>
0

> <Hydrophobic A:PRO273>
0

> <HydrogenBond A:LYS6>
0

> <HydrogenBond A:ARG55>
0

> <HydrogenBond A:GLY64>
0

> <HydrogenBond A:SER65>
0

> <HydrogenBond A:TRP66>
0

> <HydrogenBond A:SER69>
0

> <HydrogenBond A:PRO73>
0

> <HydrogenBond A:ALA74>
0

> <HydrogenBond A:PHE76>
0

> <HydrogenBond A:ALA77>
0

> <HydrogenBond A:THR78>
0

> <HydrogenBond A:GLU79>
0

> <HydrogenBond A:PHE82>
0

> <HydrogenBond A:ARG83>
0

> <HydrogenBond A:LEU85>
0

> <HydrogenBond A:THR86>
0

> <HydrogenBond A:TRP89>
0

> <HydrogenBond A:THR90>
0

> <HydrogenBond A:ASN93>
1

> <HydrogenBond A:HIS94>
0

> <HydrogenBond A:SER96>
0

> <HydrogenBond A:TRP98>
0

> <HydrogenBond A:ASN144>
0

> <HydrogenBond A:HIS151>
0

> <HydrogenBond A:ILE152>
0

> <HydrogenBond A:ALA154>
0

> <HydrogenBond A:SER155>
0

> <HydrogenBond A:ILE156>
0

> <HydrogenBond A:GLY158>
0

> <HydrogenBond A:TYR159>
0

> <HydrogenBond A:ASN162>
0

> <HydrogenBond A:LYS163>
0

> <HydrogenBond A:SER167>
0

> <HydrogenBond A:ASP168>
0

> <HydrogenBond A:SER169>
0

> <HydrogenBond A:ASN171>
0

> <HydrogenBond A:PHE172>
0

> <HydrogenBond A:THR173>
0

> <HydrogenBond A:ARG174>
0

> <HydrogenBond A:PHE175>
0

> <HydrogenBond A:SER176>
0

> <HydrogenBond A:SER177>
0

> <HydrogenBond A:ILE179>
0

> <HydrogenBond A:VAL180>
0

> <HydrogenBond A:SER183>
0

> <HydrogenBond A:THR184>
0

> <HydrogenBond A:PHE186>
0

> <HydrogenBond A:ILE187>
0

> <HydrogenBond A:PRO190>
0

> <HydrogenBond A:TYR240>
1

> <HydrogenBond A:PHE243>
0

> <HydrogenBond A:SER244>
1

> <HydrogenBond A:PHE247>
0

> <HydrogenBond A:VAL251>
0

> <HydrogenBond A:SER254>
0

> <HydrogenBond A:GLU255>
0

> <HydrogenBond A:ARG256>
0

> <HydrogenBond A:LEU257>
0

> <HydrogenBond A:GLU258>
0

> <HydrogenBond A:GLU259>
0

> <HydrogenBond A:ILE262>
0

> <HydrogenBond A:SER265>
0

> <HydrogenBond A:GLN266>
0

> <HydrogenBond A:MET268>
1

> <HydrogenBond A:GLY269>
1

> <HydrogenBond A:PRO273>
0

> <Other A:SER69>
0

> <Other A:TRP89>
0

> <Other A:TYR159>
0

> <Other A:PHE172>
0

> <Other A:SER176>
0

> <Other A:SER265>
0

$$$$
24699
  SciTegic09122300493D

 67 66  0  0  0  0            999 V2000
   23.3816   11.2576  -17.8054 O   0  0  0  1  0  0
   23.3777    9.2818  -18.8603 O   0  0  0  1  0  0
   25.3017   12.6733  -15.9691 O   0  0  0  1  0  0
   27.3036   13.9663  -17.0399 O   0  0  0  1  0  0
   16.6286    3.6921  -18.0341 C   0  0  0  1  0  0
   17.4447    4.3987  -19.1238 C   0  0  0  1  0  0
   17.0980    2.2525  -17.7653 C   0  0  0  1  0  0
   17.0650    5.8804  -19.2536 C   0  0  0  1  0  0
   16.1498    1.4271  -16.8743 C   0  0  0  1  0  0
   17.8759    6.5993  -20.3353 C   0  0  0  1  0  0
   15.5172    2.2292  -15.7303 C   0  0  0  1  0  0
   17.3588    8.0185  -20.6261 C   0  0  0  1  0  0
   14.7165    1.3588  -14.7516 C   0  0  0  1  0  0
   18.5031    9.0165  -20.8445 C   0  0  0  1  0  0
   13.9661    2.1901  -13.6979 C   0  0  0  1  0  0
   19.1425    9.4540  -19.5158 C   0  0  0  1  0  0
   12.6878    2.8332  -14.2546 C   0  0  0  1  0  0
   20.6456    9.7302  -19.6353 C   0  0  0  1  0  0
   11.9887    3.7595  -13.2534 C   0  0  0  1  0  0
   21.2405   10.2565  -18.3200 C   0  0  0  1  0  0
   10.7221    4.3931  -13.8432 C   0  0  0  1  0  0
   22.7739   10.2178  -18.3565 C   0  0  0  1  0  0
   24.8069   11.2605  -17.9056 C   0  0  0  1  0  0
   25.3460   12.6059  -17.3881 C   0  0  2  1  0  0
   26.7801   12.9248  -17.8349 C   0  0  0  1  0  0
   24.4225   12.4333  -15.6671 H   0  0
   27.0171   13.8037  -16.1386 H   0  0
   15.5783    3.7051  -18.3205 H   0  0
   16.6974    4.2661  -17.1104 H   0  0
   17.2849    3.8938  -20.0760 H   0  0
   18.5100    4.3087  -18.9226 H   0  0
   17.2360    1.7264  -18.7107 H   0  0
   18.0825    2.2916  -17.2983 H   0  0
   17.2079    6.3849  -18.2973 H   0  0
   16.0049    5.9682  -19.4819 H   0  0
   16.6986    0.5765  -16.4688 H   0  0
   15.3523    0.9991  -17.4804 H   0  0
   18.9212    6.6268  -20.0283 H   0  0
   17.8559    6.0209  -21.2601 H   0  0
   16.2921    2.7683  -15.1843 H   0  0
   14.8550    2.9753  -16.1647 H   0  0
   16.7289    7.9778  -21.5152 H   0  0
   16.7185    8.3743  -19.8175 H   0  0
   15.4038    0.6771  -14.2494 H   0  0
   14.0101    0.7312  -15.2970 H   0  0
   18.1343    9.8986  -21.3695 H   0  0
   19.2465    8.5638  -21.5019 H   0  0
   14.6294    2.9528  -13.2886 H   0  0
   13.6946    1.5451  -12.8616 H   0  0
   18.6228   10.3356  -19.1384 H   0  0
   18.9990    8.6797  -18.7616 H   0  0
   12.9134    3.3955  -15.1601 H   0  0
   12.0002    2.0391  -14.5423 H   0  0
   21.1407    8.8025  -19.9282 H   0  0
   20.8349   10.4476  -20.4349 H   0  0
   12.6803    4.5408  -12.9385 H   0  0
   11.7278    3.1972  -12.3562 H   0  0
   20.9140    9.6497  -17.4756 H   0  0
   20.8908   11.2731  -18.1482 H   0  0
   10.0199    3.6250  -14.1676 H   0  0
   10.9558    5.0175  -14.7070 H   0  0
   10.2096    5.0121  -13.1067 H   0  0
   25.1125   11.0930  -18.9355 H   0  0
   25.1984   10.4226  -17.3274 H   0  0
   24.7689   13.4192  -17.7873 H   0  0
   26.8078   13.2582  -18.8602 H   0  0
   27.4521   12.0788  -17.8628 H   0  0
  1 22  1  0
  1 23  1  0
  2 22  2  0
  3 24  1  0
  4 25  1  0
  5  6  1  0
  5  7  1  0
  6  8  1  0
  7  9  1  0
  8 10  1  0
  9 11  1  0
 10 12  1  0
 11 13  1  0
 12 14  1  0
 13 15  1  0
 14 16  1  0
 15 17  1  0
 16 18  1  0
 17 19  1  0
 18 20  1  0
 19 21  1  0
 20 22  1  0
 23 24  1  0
 24 25  1  0
  3 26  1  0
  4 27  1  0
  5 28  1  0
  5 29  1  0
  6 30  1  0
  6 31  1  0
  7 32  1  0
  7 33  1  0
  8 34  1  0
  8 35  1  0
  9 36  1  0
  9 37  1  0
 10 38  1  0
 10 39  1  0
 11 40  1  0
 11 41  1  0
 12 42  1  0
 12 43  1  0
 13 44  1  0
 13 45  1  0
 14 46  1  0
 14 47  1  0
 15 48  1  0
 15 49  1  0
 16 50  1  0
 16 51  1  0
 17 52  1  0
 17 53  1  0
 18 54  1  0
 18 55  1  0
 19 56  1  0
 19 57  1  0
 20 58  1  0
 20 59  1  0
 21 60  1  0
 21 61  1  0
 21 62  1  0
 23 63  1  0
 23 64  1  0
 24 65  1  0
 25 66  1  0
 25 67  1  0
M  END
> <Name>
24699

> <Binding Energy>
-13.4173

> <Ligand Energy>
-6.1805

> <Protein Energy>
-7801.1566

> <Complex Energy>
-7820.7545

> <Complex Entropy>
-31.4901

> <Protein Entropy>
-31.4717

> <Ligand Entropy>
-20.6511

> <Entropic Energy>
20.6327

> <AbsoluteEnergy>
14.2114

> <ConfNumber>
44

> <IonizationIndex>
1

> <MOL_NUMBER>
26

> <NumberOfIonizations>
1

> <NumberOfStereoisomers>
2

> <NumberOfTautomers>
1

> <PUBCHEM_ATOM_DEF_STEREO_COUNT>
0

> <PUBCHEM_ATOM_UDEF_STEREO_COUNT>
1

> <PUBCHEM_BONDANNOTATIONS>
24  3  3

> <PUBCHEM_BOND_DEF_STEREO_COUNT>
0

> <PUBCHEM_BOND_UDEF_STEREO_COUNT>
0

> <PUBCHEM_CACTVS_COMPLEXITY>
281

> <PUBCHEM_CACTVS_HBOND_ACCEPTOR>
4

> <PUBCHEM_CACTVS_HBOND_DONOR>
2

> <PUBCHEM_CACTVS_ROTATABLE_BOND>
20

> <PUBCHEM_CACTVS_SUBSKEYS>
AAADcfB4OAAAAAAAAAAAAAAAAAAAAAAAAAAAAAAAAAAAAAAAAAAAGgAACAAACBSggAICCAAABgAIAACQCAAAAAAAAAAAAAEAAAABEBIAAAACQAAFAAADAAGIyKCAAAAAAAAAAAAAAAAAAAAAAAAAAAAAAA==

> <PUBCHEM_CACTVS_TAUTO_COUNT>
1

> <PUBCHEM_CACTVS_TPSA>
66.8

> <PUBCHEM_COMPONENT_COUNT>
1

> <PUBCHEM_COMPOUND_CANONICALIZED>
1

> <PUBCHEM_COMPOUND_CID>
24699

> <PUBCHEM_COORDINATE_TYPE>
1
5
255

> <PUBCHEM_EXACT_MASS>
358.30830982

> <PUBCHEM_HEAVY_ATOM_COUNT>
25

> <PUBCHEM_ISOTOPIC_ATOM_COUNT>
0

> <PUBCHEM_IUPAC_CAS_NAME>
octadecanoic acid 2,3-dihydroxypropyl ester

> <PUBCHEM_IUPAC_INCHI>
InChI=1S/C21H42O4/c1-2-3-4-5-6-7-8-9-10-11-12-13-14-15-16-17-21(24)25-19-20(23)18-22/h20,22-23H,2-19H2,1H3

> <PUBCHEM_IUPAC_INCHIKEY>
VBICKXHEKHSIBG-UHFFFAOYSA-N

> <PUBCHEM_IUPAC_NAME>
2,3-dihydroxypropyl octadecanoate

> <PUBCHEM_IUPAC_NAME_MARKUP>
2,3-dihydroxypropyl octadecanoate

> <PUBCHEM_IUPAC_OPENEYE_NAME>
2,3-dihydroxypropyl octadecanoate

> <PUBCHEM_IUPAC_SYSTEMATIC_NAME>
2,3-bis(oxidanyl)propyl octadecanoate

> <PUBCHEM_IUPAC_TRADITIONAL_NAME>
stearic acid glyceryl ester

> <PUBCHEM_MOLECULAR_FORMULA>
C21H42O4

> <PUBCHEM_MOLECULAR_WEIGHT>
358.6

> <PUBCHEM_MONOISOTOPIC_WEIGHT>
358.30830982

> <PUBCHEM_OPENEYE_CAN_SMILES>
CCCCCCCCCCCCCCCCCC(=O)OCC(CO)O

> <PUBCHEM_OPENEYE_ISO_SMILES>
CCCCCCCCCCCCCCCCCC(=O)OCC(CO)O

> <PUBCHEM_TOTAL_CHARGE>
0

> <PUBCHEM_XLOGP3>
7.4

> <RelativeEnergy>
6.20819

> <StereoisomerIndex>
2

> <TautomerIndex>
1

> <POSE_NUMBER>
8

> <LibDockScore>
120.3776

> <HotSpots>
16.81,4.47,-18.66,A,7,5
21.21,11.47,-19.86,A,3,20
24.21,11.07,-17.86,A,15,23

> <-In-Situ Starting Energy>
-2374.04982

> <-In-Situ Final Energy>
43.7532227

> <In-Situ Gradient>
0.0009387735842

> <Favorable Total>
4

> <Unfavorable Total>
0

> <Charge Total>
0

> <Hydrophobic Total>
1

> <HydrogenBond Total>
3

> <Other Total>
0

> <Favorable A:LYS6>
0

> <Favorable A:ARG55>
0

> <Favorable A:LEU58>
0

> <Favorable A:LEU61>
0

> <Favorable A:ILE62>
0

> <Favorable A:GLY64>
0

> <Favorable A:SER65>
0

> <Favorable A:TRP66>
0

> <Favorable A:SER69>
0

> <Favorable A:VAL70>
0

> <Favorable A:PRO73>
0

> <Favorable A:ALA74>
0

> <Favorable A:PHE76>
0

> <Favorable A:ALA77>
0

> <Favorable A:THR78>
0

> <Favorable A:GLU79>
0

> <Favorable A:PHE82>
0

> <Favorable A:ARG83>
0

> <Favorable A:LEU85>
1

> <Favorable A:THR86>
0

> <Favorable A:TRP89>
0

> <Favorable A:THR90>
0

> <Favorable A:ASN93>
0

> <Favorable A:HIS94>
0

> <Favorable A:SER96>
0

> <Favorable A:VAL97>
0

> <Favorable A:TRP98>
0

> <Favorable A:PHE140>
0

> <Favorable A:LEU141>
0

> <Favorable A:ASN144>
0

> <Favorable A:ILE148>
0

> <Favorable A:ILE150>
0

> <Favorable A:HIS151>
0

> <Favorable A:ILE152>
0

> <Favorable A:ALA154>
0

> <Favorable A:SER155>
2

> <Favorable A:ILE156>
0

> <Favorable A:GLY158>
1

> <Favorable A:TYR159>
0

> <Favorable A:ARG160>
0

> <Favorable A:ARG161>
0

> <Favorable A:ASN162>
0

> <Favorable A:LYS163>
0

> <Favorable A:SER167>
0

> <Favorable A:ASP168>
0

> <Favorable A:SER169>
0

> <Favorable A:ASN171>
0

> <Favorable A:PHE172>
0

> <Favorable A:THR173>
0

> <Favorable A:ARG174>
0

> <Favorable A:PHE175>
0

> <Favorable A:SER176>
0

> <Favorable A:SER177>
0

> <Favorable A:LEU178>
0

> <Favorable A:ILE179>
0

> <Favorable A:VAL180>
0

> <Favorable A:LEU181>
0

> <Favorable A:SER183>
0

> <Favorable A:THR184>
0

> <Favorable A:PHE186>
0

> <Favorable A:ILE187>
0

> <Favorable A:PHE188>
0

> <Favorable A:ILE189>
0

> <Favorable A:PRO190>
0

> <Favorable A:PHE191>
0

> <Favorable A:TYR240>
0

> <Favorable A:PHE243>
0

> <Favorable A:SER244>
0

> <Favorable A:PHE247>
0

> <Favorable A:PHE248>
0

> <Favorable A:VAL251>
0

> <Favorable A:TRP252>
0

> <Favorable A:SER254>
0

> <Favorable A:GLU255>
0

> <Favorable A:ARG256>
0

> <Favorable A:LEU257>
0

> <Favorable A:GLU258>
0

> <Favorable A:GLU259>
0

> <Favorable A:LEU261>
0

> <Favorable A:ILE262>
0

> <Favorable A:ILE263>
0

> <Favorable A:SER265>
0

> <Favorable A:GLN266>
0

> <Favorable A:MET268>
0

> <Favorable A:GLY269>
0

> <Favorable A:TYR272>
0

> <Favorable A:PRO273>
0

> <Unfavorable A:ARG55>
0

> <Unfavorable A:PRO73>
0

> <Unfavorable A:PHE76>
0

> <Unfavorable A:GLU79>
0

> <Unfavorable A:ARG83>
0

> <Unfavorable A:THR86>
0

> <Unfavorable A:TRP89>
0

> <Unfavorable A:THR90>
0

> <Unfavorable A:ASN93>
0

> <Unfavorable A:TRP98>
0

> <Unfavorable A:ASN144>
0

> <Unfavorable A:SER155>
0

> <Unfavorable A:GLY158>
0

> <Unfavorable A:TYR159>
0

> <Unfavorable A:ASN162>
0

> <Unfavorable A:ASP168>
0

> <Unfavorable A:ASN171>
0

> <Unfavorable A:THR173>
0

> <Unfavorable A:ARG174>
0

> <Unfavorable A:SER183>
0

> <Unfavorable A:THR184>
0

> <Unfavorable A:PHE186>
0

> <Unfavorable A:SER244>
0

> <Unfavorable A:SER254>
0

> <Unfavorable A:GLU255>
0

> <Unfavorable A:SER265>
0

> <Unfavorable A:GLN266>
0

> <Unfavorable A:GLY269>
0

> <Charge A:ARG55>
0

> <Charge A:PHE76>
0

> <Charge A:GLU79>
0

> <Charge A:PHE82>
0

> <Charge A:ARG83>
0

> <Charge A:TRP89>
0

> <Charge A:HIS94>
0

> <Charge A:TRP98>
0

> <Charge A:TYR159>
0

> <Charge A:ARG161>
0

> <Charge A:LYS163>
0

> <Charge A:ASP168>
0

> <Charge A:PHE172>
0

> <Charge A:ARG174>
0

> <Charge A:PHE175>
0

> <Charge A:PHE188>
0

> <Charge A:PHE247>
0

> <Charge A:PHE248>
0

> <Hydrophobic A:LEU58>
0

> <Hydrophobic A:LEU61>
0

> <Hydrophobic A:ILE62>
0

> <Hydrophobic A:TRP66>
0

> <Hydrophobic A:VAL70>
0

> <Hydrophobic A:PRO73>
0

> <Hydrophobic A:ALA74>
0

> <Hydrophobic A:PHE76>
0

> <Hydrophobic A:ALA77>
0

> <Hydrophobic A:THR78>
0

> <Hydrophobic A:PHE82>
0

> <Hydrophobic A:ARG83>
0

> <Hydrophobic A:LEU85>
1

> <Hydrophobic A:TRP89>
0

> <Hydrophobic A:THR90>
0

> <Hydrophobic A:ASN93>
0

> <Hydrophobic A:HIS94>
0

> <Hydrophobic A:VAL97>
0

> <Hydrophobic A:TRP98>
0

> <Hydrophobic A:PHE140>
0

> <Hydrophobic A:LEU141>
0

> <Hydrophobic A:ILE148>
0

> <Hydrophobic A:ILE150>
0

> <Hydrophobic A:HIS151>
0

> <Hydrophobic A:ILE152>
0

> <Hydrophobic A:ALA154>
0

> <Hydrophobic A:SER155>
0

> <Hydrophobic A:ILE156>
0

> <Hydrophobic A:GLY158>
0

> <Hydrophobic A:TYR159>
0

> <Hydrophobic A:ARG160>
0

> <Hydrophobic A:ARG161>
0

> <Hydrophobic A:ASP168>
0

> <Hydrophobic A:ASN171>
0

> <Hydrophobic A:PHE172>
0

> <Hydrophobic A:ARG174>
0

> <Hydrophobic A:PHE175>
0

> <Hydrophobic A:LEU178>
0

> <Hydrophobic A:ILE179>
0

> <Hydrophobic A:VAL180>
0

> <Hydrophobic A:LEU181>
0

> <Hydrophobic A:PHE186>
0

> <Hydrophobic A:ILE187>
0

> <Hydrophobic A:PHE188>
0

> <Hydrophobic A:ILE189>
0

> <Hydrophobic A:PRO190>
0

> <Hydrophobic A:PHE191>
0

> <Hydrophobic A:TYR240>
0

> <Hydrophobic A:PHE243>
0

> <Hydrophobic A:PHE247>
0

> <Hydrophobic A:PHE248>
0

> <Hydrophobic A:VAL251>
0

> <Hydrophobic A:TRP252>
0

> <Hydrophobic A:SER254>
0

> <Hydrophobic A:LEU261>
0

> <Hydrophobic A:ILE262>
0

> <Hydrophobic A:ILE263>
0

> <Hydrophobic A:TYR272>
0

> <Hydrophobic A:PRO273>
0

> <HydrogenBond A:LYS6>
0

> <HydrogenBond A:ARG55>
0

> <HydrogenBond A:GLY64>
0

> <HydrogenBond A:SER65>
0

> <HydrogenBond A:TRP66>
0

> <HydrogenBond A:SER69>
0

> <HydrogenBond A:PRO73>
0

> <HydrogenBond A:ALA74>
0

> <HydrogenBond A:PHE76>
0

> <HydrogenBond A:ALA77>
0

> <HydrogenBond A:THR78>
0

> <HydrogenBond A:GLU79>
0

> <HydrogenBond A:PHE82>
0

> <HydrogenBond A:ARG83>
0

> <HydrogenBond A:LEU85>
0

> <HydrogenBond A:THR86>
0

> <HydrogenBond A:TRP89>
0

> <HydrogenBond A:THR90>
0

> <HydrogenBond A:ASN93>
0

> <HydrogenBond A:HIS94>
0

> <HydrogenBond A:SER96>
0

> <HydrogenBond A:TRP98>
0

> <HydrogenBond A:ASN144>
0

> <HydrogenBond A:HIS151>
0

> <HydrogenBond A:ILE152>
0

> <HydrogenBond A:ALA154>
0

> <HydrogenBond A:SER155>
2

> <HydrogenBond A:ILE156>
0

> <HydrogenBond A:GLY158>
1

> <HydrogenBond A:TYR159>
0

> <HydrogenBond A:ASN162>
0

> <HydrogenBond A:LYS163>
0

> <HydrogenBond A:SER167>
0

> <HydrogenBond A:ASP168>
0

> <HydrogenBond A:SER169>
0

> <HydrogenBond A:ASN171>
0

> <HydrogenBond A:PHE172>
0

> <HydrogenBond A:THR173>
0

> <HydrogenBond A:ARG174>
0

> <HydrogenBond A:PHE175>
0

> <HydrogenBond A:SER176>
0

> <HydrogenBond A:SER177>
0

> <HydrogenBond A:ILE179>
0

> <HydrogenBond A:VAL180>
0

> <HydrogenBond A:SER183>
0

> <HydrogenBond A:THR184>
0

> <HydrogenBond A:PHE186>
0

> <HydrogenBond A:ILE187>
0

> <HydrogenBond A:PRO190>
0

> <HydrogenBond A:TYR240>
0

> <HydrogenBond A:PHE243>
0

> <HydrogenBond A:SER244>
0

> <HydrogenBond A:PHE247>
0

> <HydrogenBond A:VAL251>
0

> <HydrogenBond A:SER254>
0

> <HydrogenBond A:GLU255>
0

> <HydrogenBond A:ARG256>
0

> <HydrogenBond A:LEU257>
0

> <HydrogenBond A:GLU258>
0

> <HydrogenBond A:GLU259>
0

> <HydrogenBond A:ILE262>
0

> <HydrogenBond A:SER265>
0

> <HydrogenBond A:GLN266>
0

> <HydrogenBond A:MET268>
0

> <HydrogenBond A:GLY269>
0

> <HydrogenBond A:PRO273>
0

> <Other A:SER69>
0

> <Other A:TRP89>
0

> <Other A:TYR159>
0

> <Other A:PHE172>
0

> <Other A:SER176>
0

> <Other A:SER265>
0

$$$$
65080
  SciTegic09122300493D

 34 35  0  0  0  0            999 V2000
    7.9001    0.8479   -0.5181 O   0  0  0  1  0  0
    4.2828    1.4478   -0.5606 O   0  0  0  1  0  0
    6.6889   -0.0631   -2.9946 O   0  0  0  1  0  0
    6.4435    1.5429    1.2158 O   0  0  0  1  0  0
    6.2920   -1.6110   -0.5014 O   0  0  0  1  0  0
    7.2121    4.0988   -2.0013 O   0  0  0  1  0  0
    5.1194    0.4358   -1.1324 C   0  0  1  1  0  0
    6.1427    0.9689   -2.1932 C   0  0  1  1  0  0
    5.8785   -0.3436   -0.0252 C   0  0  2  1  0  0
    7.3674    1.6669   -1.5407 C   0  0  1  1  0  0
    7.0372    0.4604    0.5329 C   0  0  1  1  0  0
    7.1969    3.1053   -1.0038 C   0  0  0  1  0  0
    7.2787    2.2786    2.0327 C   0  0  0  1  0  0
    8.6556    2.0983    2.0923 C   0  0  0  1  0  0
    6.6809    3.2705    2.7934 C   0  0  0  1  0  0
    9.4228    2.8660    2.9392 C   0  0  0  1  0  0
    7.4485    4.0447    3.6446 C   0  0  0  1  0  0
    8.8103    3.8191    3.7269 C   0  0  0  1  0  0
    4.2194    2.1857   -1.1660 H   0  0
    6.0247   -0.7312   -3.1729 H   0  0
    6.8294   -2.0908    0.1246 H   0  0
    6.4047    4.0374   -2.5007 H   0  0
    4.4143   -0.2574   -1.5944 H   0  0
    5.6740    1.6411   -2.9079 H   0  0
    5.2356   -0.4851    0.8284 H   0  0
    8.1391    1.7373   -2.3079 H   0  0
    7.5893   -0.1492    1.2509 H   0  0
    6.3256    3.2388   -0.3583 H   0  0
    8.0615    3.3235   -0.3779 H   0  0
    9.1569    1.3600    1.4935 H   0  0
    5.6191    3.4441    2.7164 H   0  0
   10.4907    2.7139    2.9892 H   0  0
    7.0010    4.8350    4.2275 H   0  0
    9.4280    4.4326    4.3510 H   0  0
  1 10  1  0
  1 11  1  0
  2  7  1  0
  3  8  1  0
  4 11  1  0
  4 13  1  0
  5  9  1  0
  6 12  1  0
  7  8  1  0
  7  9  1  0
  8 10  1  0
  9 11  1  0
 10 12  1  0
 13 14  2  0
 13 15  1  0
 14 16  1  0
 15 17  2  0
 16 18  2  0
 17 18  1  0
  2 19  1  0
  3 20  1  0
  5 21  1  0
  6 22  1  0
  7 23  1  0
  8 24  1  0
  9 25  1  0
 10 26  1  0
 11 27  1  0
 12 28  1  0
 12 29  1  0
 14 30  1  0
 15 31  1  0
 16 32  1  0
 17 33  1  0
 18 34  1  0
M  END
> <Name>
65080

> <Binding Energy>
-94.7721

> <Ligand Energy>
58.6998

> <Protein Energy>
-7801.1566

> <Complex Energy>
-7837.2289

> <Complex Entropy>
-31.4785

> <Protein Entropy>
-31.4717

> <Ligand Entropy>
-18.7826

> <Entropic Energy>
18.7758

> <AbsoluteEnergy>
32.5565

> <ConfNumber>
14

> <IonizationIndex>
1

> <MOL_NUMBER>
28

> <NumberOfIonizations>
1

> <NumberOfStereoisomers>
1

> <NumberOfTautomers>
1

> <PUBCHEM_ATOM_DEF_STEREO_COUNT>
5

> <PUBCHEM_ATOM_UDEF_STEREO_COUNT>
0

> <PUBCHEM_BOND_DEF_STEREO_COUNT>
0

> <PUBCHEM_BOND_UDEF_STEREO_COUNT>
0

> <PUBCHEM_CACTVS_TAUTO_COUNT>
1

> <PUBCHEM_COMPONENT_COUNT>
1

> <PUBCHEM_COMPOUND_CID>
65080

> <PUBCHEM_CONFORMER_DIVERSEORDER>
1
74
49
40
13
78
7
22
67
11
77
53
39
71
42
26
75
69
56
37
18
24
46
60
52
57
63
43
9
8
19
58
25
41
59
47
33
29
73
50
31
14
51
28
16
54
65
72
12
2
44
68
55
21
48
66
35
3
6
64
70
30
10
38
45
36
76
15
20
32
4
27
5
61
17
34
23
62

> <PUBCHEM_CONFORMER_ID>
0000FE3800000001

> <PUBCHEM_CONFORMER_RMSD>
0.6

> <PUBCHEM_COORDINATE_TYPE>
2
5
10

> <PUBCHEM_EFFECTIVE_ROTOR_COUNT>
4.2

> <PUBCHEM_FEATURE_SELFOVERLAP>
60.959

> <PUBCHEM_HEAVY_ATOM_COUNT>
18

> <PUBCHEM_ISOTOPIC_ATOM_COUNT>
0

> <PUBCHEM_MMFF94_ENERGY>
57.2771

> <PUBCHEM_MMFF94_PARTIAL_CHARGES>
27
1 -0.56
10 0.28
11 0.56
12 0.28
13 0.08
14 -0.15
15 -0.15
16 -0.15
17 -0.15
18 -0.15
2 -0.68
26 0.4
27 0.4
28 0.4
29 0.4
3 -0.68
30 0.15
31 0.15
32 0.15
33 0.15
34 0.15
4 -0.36
5 -0.68
6 -0.68
7 0.28
8 0.28
9 0.28

> <PUBCHEM_PHARMACOPHORE_FEATURES>
12
1 1 acceptor
1 2 acceptor
1 2 donor
1 3 acceptor
1 3 donor
1 4 acceptor
1 5 acceptor
1 5 donor
1 6 acceptor
1 6 donor
6 1 7 8 9 10 11 rings
6 13 14 15 16 17 18 rings

> <PUBCHEM_SHAPE_FINGERPRINT>
10366900 7 17749111097570957451
104564 63 18124600786234116884
10980938 120 18410008840554365038
11471102 20 18410008836185421358
11640471 11 17775297083603905073
116883 192 18198345044241771300
12236239 1 17775565326065944783
12654215 9 18261105262381052798
13134695 92 18410005516360382988
13140716 1 18193555794639399536
14790565 3 18193003831777570700
15219456 202 18114181938808980947
15653759 3 17240483619794320011
16945 1 18409728473636947278
1813 80 17770797714282678710
18186145 218 18341620346951707494
18219364 16 18261671584005192061
18785283 64 18043263537628414293
19049666 15 17678449775852159055
200 152 18201150053529647511
20645476 183 17988917912357421423
20645477 70 18341045237835355078
20671657 1 18341333408908491197
20681677 76 18261393416385557475
21041028 32 18192994820381282337
21524375 3 18122625230016102094
21639500 275 18339352080423151141
22094290 62 18340769342041909713
22289505 5 18263350400843082061
22854114 111 18411141354958600891
23175994 123 18263089833561368095
23184049 59 18341896285588797623
23559900 14 16806166532017950451
23598291 2 18059847372757216727
25 1 18334857242286510134
2748010 2 18337940191803425796
3472631 163 15769781230410730153
350125 39 17977109285701555355
474 4 18339921627303862297
602551 16 16154002334304847883
74978 22 18341332300812164551
77492 1 17703788107145141487
7832392 63 18270678783122939126
81228 2 17903921058850452768
84936 182 17771902993808758184
9971528 1 18273210885571658452
9981440 41 17264668696302020824

> <PUBCHEM_SHAPE_MULTIPOLES>
335.22
7.7
2.57
1
3.58
1.32
-0.03
0.13
-0.24
-2.55
-0.05
1.06
-0.05
0.13

> <PUBCHEM_SHAPE_SELFOVERLAP>
700.036

> <PUBCHEM_SHAPE_VOLUME>
187.4

> <RelativeEnergy>
4.70042

> <StereoisomerIndex>
1

> <TautomerIndex>
1

> <POSE_NUMBER>
1

> <LibDockScore>
94.6542

> <HotSpots>
7.61,2.87,-1.05,A,58,12
9.21,2.67,2.54,A,84,14
7.81,4.27,4.14,A,90,17

> <-In-Situ Starting Energy>
-86.0927478

> <-In-Situ Final Energy>
4.97989655

> <In-Situ Gradient>
0.0009673315269

> <Favorable Total>
8

> <Unfavorable Total>
0

> <Charge Total>
0

> <Hydrophobic Total>
2

> <HydrogenBond Total>
6

> <Other Total>
0

> <Favorable A:LYS6>
0

> <Favorable A:ARG55>
1

> <Favorable A:LEU58>
0

> <Favorable A:LEU61>
0

> <Favorable A:ILE62>
0

> <Favorable A:GLY64>
0

> <Favorable A:SER65>
0

> <Favorable A:TRP66>
0

> <Favorable A:SER69>
0

> <Favorable A:VAL70>
0

> <Favorable A:PRO73>
0

> <Favorable A:ALA74>
0

> <Favorable A:PHE76>
0

> <Favorable A:ALA77>
0

> <Favorable A:THR78>
0

> <Favorable A:GLU79>
0

> <Favorable A:PHE82>
0

> <Favorable A:ARG83>
0

> <Favorable A:LEU85>
0

> <Favorable A:THR86>
0

> <Favorable A:TRP89>
0

> <Favorable A:THR90>
0

> <Favorable A:ASN93>
1

> <Favorable A:HIS94>
0

> <Favorable A:SER96>
0

> <Favorable A:VAL97>
1

> <Favorable A:TRP98>
0

> <Favorable A:PHE140>
0

> <Favorable A:LEU141>
0

> <Favorable A:ASN144>
0

> <Favorable A:ILE148>
0

> <Favorable A:ILE150>
0

> <Favorable A:HIS151>
0

> <Favorable A:ILE152>
0

> <Favorable A:ALA154>
0

> <Favorable A:SER155>
0

> <Favorable A:ILE156>
0

> <Favorable A:GLY158>
0

> <Favorable A:TYR159>
0

> <Favorable A:ARG160>
0

> <Favorable A:ARG161>
0

> <Favorable A:ASN162>
0

> <Favorable A:LYS163>
0

> <Favorable A:SER167>
0

> <Favorable A:ASP168>
0

> <Favorable A:SER169>
0

> <Favorable A:ASN171>
0

> <Favorable A:PHE172>
0

> <Favorable A:THR173>
0

> <Favorable A:ARG174>
0

> <Favorable A:PHE175>
0

> <Favorable A:SER176>
0

> <Favorable A:SER177>
0

> <Favorable A:LEU178>
0

> <Favorable A:ILE179>
0

> <Favorable A:VAL180>
0

> <Favorable A:LEU181>
0

> <Favorable A:SER183>
0

> <Favorable A:THR184>
0

> <Favorable A:PHE186>
0

> <Favorable A:ILE187>
1

> <Favorable A:PHE188>
0

> <Favorable A:ILE189>
0

> <Favorable A:PRO190>
0

> <Favorable A:PHE191>
0

> <Favorable A:TYR240>
0

> <Favorable A:PHE243>
0

> <Favorable A:SER244>
1

> <Favorable A:PHE247>
0

> <Favorable A:PHE248>
0

> <Favorable A:VAL251>
0

> <Favorable A:TRP252>
0

> <Favorable A:SER254>
0

> <Favorable A:GLU255>
0

> <Favorable A:ARG256>
0

> <Favorable A:LEU257>
0

> <Favorable A:GLU258>
0

> <Favorable A:GLU259>
0

> <Favorable A:LEU261>
0

> <Favorable A:ILE262>
0

> <Favorable A:ILE263>
0

> <Favorable A:SER265>
0

> <Favorable A:GLN266>
0

> <Favorable A:MET268>
1

> <Favorable A:GLY269>
2

> <Favorable A:TYR272>
0

> <Favorable A:PRO273>
0

> <Unfavorable A:ARG55>
0

> <Unfavorable A:PRO73>
0

> <Unfavorable A:PHE76>
0

> <Unfavorable A:GLU79>
0

> <Unfavorable A:ARG83>
0

> <Unfavorable A:THR86>
0

> <Unfavorable A:TRP89>
0

> <Unfavorable A:THR90>
0

> <Unfavorable A:ASN93>
0

> <Unfavorable A:TRP98>
0

> <Unfavorable A:ASN144>
0

> <Unfavorable A:SER155>
0

> <Unfavorable A:GLY158>
0

> <Unfavorable A:TYR159>
0

> <Unfavorable A:ASN162>
0

> <Unfavorable A:ASP168>
0

> <Unfavorable A:ASN171>
0

> <Unfavorable A:THR173>
0

> <Unfavorable A:ARG174>
0

> <Unfavorable A:SER183>
0

> <Unfavorable A:THR184>
0

> <Unfavorable A:PHE186>
0

> <Unfavorable A:SER244>
0

> <Unfavorable A:SER254>
0

> <Unfavorable A:GLU255>
0

> <Unfavorable A:SER265>
0

> <Unfavorable A:GLN266>
0

> <Unfavorable A:GLY269>
0

> <Charge A:ARG55>
0

> <Charge A:PHE76>
0

> <Charge A:GLU79>
0

> <Charge A:PHE82>
0

> <Charge A:ARG83>
0

> <Charge A:TRP89>
0

> <Charge A:HIS94>
0

> <Charge A:TRP98>
0

> <Charge A:TYR159>
0

> <Charge A:ARG161>
0

> <Charge A:LYS163>
0

> <Charge A:ASP168>
0

> <Charge A:PHE172>
0

> <Charge A:ARG174>
0

> <Charge A:PHE175>
0

> <Charge A:PHE188>
0

> <Charge A:PHE247>
0

> <Charge A:PHE248>
0

> <Hydrophobic A:LEU58>
0

> <Hydrophobic A:LEU61>
0

> <Hydrophobic A:ILE62>
0

> <Hydrophobic A:TRP66>
0

> <Hydrophobic A:VAL70>
0

> <Hydrophobic A:PRO73>
0

> <Hydrophobic A:ALA74>
0

> <Hydrophobic A:PHE76>
0

> <Hydrophobic A:ALA77>
0

> <Hydrophobic A:THR78>
0

> <Hydrophobic A:PHE82>
0

> <Hydrophobic A:ARG83>
0

> <Hydrophobic A:LEU85>
0

> <Hydrophobic A:TRP89>
0

> <Hydrophobic A:THR90>
0

> <Hydrophobic A:ASN93>
0

> <Hydrophobic A:HIS94>
0

> <Hydrophobic A:VAL97>
1

> <Hydrophobic A:TRP98>
0

> <Hydrophobic A:PHE140>
0

> <Hydrophobic A:LEU141>
0

> <Hydrophobic A:ILE148>
0

> <Hydrophobic A:ILE150>
0

> <Hydrophobic A:HIS151>
0

> <Hydrophobic A:ILE152>
0

> <Hydrophobic A:ALA154>
0

> <Hydrophobic A:SER155>
0

> <Hydrophobic A:ILE156>
0

> <Hydrophobic A:GLY158>
0

> <Hydrophobic A:TYR159>
0

> <Hydrophobic A:ARG160>
0

> <Hydrophobic A:ARG161>
0

> <Hydrophobic A:ASP168>
0

> <Hydrophobic A:ASN171>
0

> <Hydrophobic A:PHE172>
0

> <Hydrophobic A:ARG174>
0

> <Hydrophobic A:PHE175>
0

> <Hydrophobic A:LEU178>
0

> <Hydrophobic A:ILE179>
0

> <Hydrophobic A:VAL180>
0

> <Hydrophobic A:LEU181>
0

> <Hydrophobic A:PHE186>
0

> <Hydrophobic A:ILE187>
1

> <Hydrophobic A:PHE188>
0

> <Hydrophobic A:ILE189>
0

> <Hydrophobic A:PRO190>
0

> <Hydrophobic A:PHE191>
0

> <Hydrophobic A:TYR240>
0

> <Hydrophobic A:PHE243>
0

> <Hydrophobic A:PHE247>
0

> <Hydrophobic A:PHE248>
0

> <Hydrophobic A:VAL251>
0

> <Hydrophobic A:TRP252>
0

> <Hydrophobic A:SER254>
0

> <Hydrophobic A:LEU261>
0

> <Hydrophobic A:ILE262>
0

> <Hydrophobic A:ILE263>
0

> <Hydrophobic A:TYR272>
0

> <Hydrophobic A:PRO273>
0

> <HydrogenBond A:LYS6>
0

> <HydrogenBond A:ARG55>
1

> <HydrogenBond A:GLY64>
0

> <HydrogenBond A:SER65>
0

> <HydrogenBond A:TRP66>
0

> <HydrogenBond A:SER69>
0

> <HydrogenBond A:PRO73>
0

> <HydrogenBond A:ALA74>
0

> <HydrogenBond A:PHE76>
0

> <HydrogenBond A:ALA77>
0

> <HydrogenBond A:THR78>
0

> <HydrogenBond A:GLU79>
0

> <HydrogenBond A:PHE82>
0

> <HydrogenBond A:ARG83>
0

> <HydrogenBond A:LEU85>
0

> <HydrogenBond A:THR86>
0

> <HydrogenBond A:TRP89>
0

> <HydrogenBond A:THR90>
0

> <HydrogenBond A:ASN93>
1

> <HydrogenBond A:HIS94>
0

> <HydrogenBond A:SER96>
0

> <HydrogenBond A:TRP98>
0

> <HydrogenBond A:ASN144>
0

> <HydrogenBond A:HIS151>
0

> <HydrogenBond A:ILE152>
0

> <HydrogenBond A:ALA154>
0

> <HydrogenBond A:SER155>
0

> <HydrogenBond A:ILE156>
0

> <HydrogenBond A:GLY158>
0

> <HydrogenBond A:TYR159>
0

> <HydrogenBond A:ASN162>
0

> <HydrogenBond A:LYS163>
0

> <HydrogenBond A:SER167>
0

> <HydrogenBond A:ASP168>
0

> <HydrogenBond A:SER169>
0

> <HydrogenBond A:ASN171>
0

> <HydrogenBond A:PHE172>
0

> <HydrogenBond A:THR173>
0

> <HydrogenBond A:ARG174>
0

> <HydrogenBond A:PHE175>
0

> <HydrogenBond A:SER176>
0

> <HydrogenBond A:SER177>
0

> <HydrogenBond A:ILE179>
0

> <HydrogenBond A:VAL180>
0

> <HydrogenBond A:SER183>
0

> <HydrogenBond A:THR184>
0

> <HydrogenBond A:PHE186>
0

> <HydrogenBond A:ILE187>
0

> <HydrogenBond A:PRO190>
0

> <HydrogenBond A:TYR240>
0

> <HydrogenBond A:PHE243>
0

> <HydrogenBond A:SER244>
1

> <HydrogenBond A:PHE247>
0

> <HydrogenBond A:VAL251>
0

> <HydrogenBond A:SER254>
0

> <HydrogenBond A:GLU255>
0

> <HydrogenBond A:ARG256>
0

> <HydrogenBond A:LEU257>
0

> <HydrogenBond A:GLU258>
0

> <HydrogenBond A:GLU259>
0

> <HydrogenBond A:ILE262>
0

> <HydrogenBond A:SER265>
0

> <HydrogenBond A:GLN266>
0

> <HydrogenBond A:MET268>
1

> <HydrogenBond A:GLY269>
2

> <HydrogenBond A:PRO273>
0

> <Other A:SER69>
0

> <Other A:TRP89>
0

> <Other A:TYR159>
0

> <Other A:PHE172>
0

> <Other A:SER176>
0

> <Other A:SER265>
0

$$$$
68051
  SciTegic09122300493D

 67 67  0  0  0  0            999 V2000
   15.8166    0.9849  -10.4584 O   0  0  0  1  0  0
   14.3242    4.8011  -12.3022 O   0  0  0  1  0  0
   11.4109    1.2430  -11.6703 O   0  5  0  1  0  0
   11.8880    5.2871  -12.8644 O   0  0  0  1  0  0
   14.9344    3.2135  -10.6093 C   0  0  0  1  0  0
   14.4614    3.6108   -9.1887 C   0  0  0  1  0  0
   16.3943    3.6609  -10.8499 C   0  0  0  1  0  0
   14.8577    1.6749  -10.6400 C   0  0  0  1  0  0
   13.9923    3.8470  -11.6575 C   0  0  0  1  0  0
   13.5171    1.0758  -10.7897 C   0  0  0  1  0  0
   12.6256    3.2833  -11.8205 C   0  0  0  1  0  0
   12.4396    1.8549  -11.4339 C   0  0  0  1  0  0
   14.1441    5.0668   -8.9483 C   0  0  0  1  0  0
   16.9406    3.2960  -12.2117 C   0  0  0  1  0  0
   13.2945   -0.3716  -10.4496 C   0  0  0  1  0  0
   11.6192    4.0646  -12.2985 C   0  0  0  1  0  0
   10.1462    3.7531  -12.1355 C   0  0  0  1  0  0
    9.4567    3.3716  -13.4544 C   0  0  0  1  0  0
   12.9192    5.5842   -8.7309 C   0  0  0  1  0  0
   17.9079    2.4060  -12.5109 C   0  0  0  1  0  0
   12.8034   -0.5481   -9.0345 C   0  0  0  1  0  0
    9.8900    1.9901  -13.9392 C   0  0  0  1  0  0
    7.9271    3.3816  -13.3322 C   0  0  0  1  0  0
   11.6186    4.8364   -8.8743 C   0  0  0  1  0  0
   12.7179    6.9220   -8.0665 C   0  0  0  1  0  0
   18.7004    1.5914  -11.5169 C   0  0  0  1  0  0
   18.4731    2.3134  -13.9046 C   0  0  0  1  0  0
   11.5188   -0.5287   -8.6288 C   0  0  0  1  0  0
   11.1244   -0.8766   -7.2154 C   0  0  0  1  0  0
   10.3368   -0.4273   -9.5611 C   0  0  0  1  0  0
   12.8260    5.3260  -13.0454 H   0  0
   15.2334    3.3105   -8.4801 H   0  0
   13.6030    3.0121   -8.8898 H   0  0
   16.4649    4.7435  -10.7360 H   0  0
   17.0217    3.2484  -10.0635 H   0  0
   15.0042    5.7024   -8.8453 H   0  0
   16.5356    3.8929  -13.0081 H   0  0
   14.2203   -0.9095  -10.5925 H   0  0
   12.5867   -0.7973  -11.1589 H   0  0
    9.6628    4.6434  -11.7338 H   0  0
    9.9806    2.9804  -11.3849 H   0  0
    9.7711    4.1029  -14.1953 H   0  0
   13.5724   -0.7908   -8.3234 H   0  0
    9.6548    1.2422  -13.1823 H   0  0
   10.9654    1.9420  -14.1088 H   0  0
    9.3709    1.7091  -14.8529 H   0  0
    7.5530    4.3767  -13.1172 H   0  0
    7.5997    2.7084  -12.5428 H   0  0
    7.4534    3.0491  -14.2549 H   0  0
   11.7417    3.7810   -9.1024 H   0  0
   11.0198    5.2713   -9.6747 H   0  0
   11.0602    4.8977   -7.9462 H   0  0
   12.4468    7.6816   -8.7996 H   0  0
   13.6181    7.2387   -7.5409 H   0  0
   11.9269    6.8773   -7.3179 H   0  0
   18.4076    0.5431  -11.5742 H   0  0
   18.5440    1.9228  -10.4937 H   0  0
   19.7695    1.6622  -11.7165 H   0  0
   18.1419    3.1483  -14.5226 H   0  0
   18.1535    1.3870  -14.3816 H   0  0
   19.5618    2.3288  -13.8794 H   0  0
   10.8067    0.0186   -6.6826 H   0  0
   11.9590   -1.3158   -6.6697 H   0  0
   10.3048   -1.5924   -7.2003 H   0  0
   10.5896   -0.7052  -10.5809 H   0  0
    9.9992    0.6070   -9.6069 H   0  0
    9.5048   -1.0536   -9.2478 H   0  0
  1  8  2  0
  2  9  2  0
  3 12  1  0
  4 16  1  0
  5  6  1  0
  5  7  1  0
  5  8  1  0
  5  9  1  0
  6 13  1  0
  7 14  1  0
  8 10  1  0
  9 11  1  0
 10 12  2  0
 10 15  1  0
 11 12  1  0
 11 16  2  0
 13 19  2  0
 14 20  2  0
 15 21  1  0
 16 17  1  0
 17 18  1  0
 18 22  1  0
 18 23  1  0
 19 24  1  0
 19 25  1  0
 20 26  1  0
 20 27  1  0
 21 28  2  0
 28 29  1  0
 28 30  1  0
  4 31  1  0
  6 32  1  0
  6 33  1  0
  7 34  1  0
  7 35  1  0
 13 36  1  0
 14 37  1  0
 15 38  1  0
 15 39  1  0
 17 40  1  0
 17 41  1  0
 18 42  1  0
 21 43  1  0
 22 44  1  0
 22 45  1  0
 22 46  1  0
 23 47  1  0
 23 48  1  0
 23 49  1  0
 24 50  1  0
 24 51  1  0
 24 52  1  0
 25 53  1  0
 25 54  1  0
 25 55  1  0
 26 56  1  0
 26 57  1  0
 26 58  1  0
 27 59  1  0
 27 60  1  0
 27 61  1  0
 29 62  1  0
 29 63  1  0
 29 64  1  0
 30 65  1  0
 30 66  1  0
 30 67  1  0
M  CHG  1   3  -1
M  END
> <Name>
68051

> <Binding Energy>
-55.6998

> <Ligand Energy>
140.7542

> <Protein Energy>
-7801.1566

> <Complex Energy>
-7716.1023

> <Complex Entropy>
-31.4865

> <Protein Entropy>
-31.4717

> <Ligand Entropy>
-20.2047

> <Entropic Energy>
20.1899

> <AbsoluteEnergy>
56.589

> <ConfNumber>
18

> <Ionization pH>
7.5

> <IonizationIndex>
1

> <MOL_NUMBER>
33

> <NumberOfIonizations>
1

> <NumberOfStereoisomers>
1

> <NumberOfTautomers>
3

> <RelativeEnergy>
5.59503

> <StereoisomerIndex>
1

> <TautomerIndex>
3

> <POSE_NUMBER>
5

> <LibDockScore>
106.4474

> <HotSpots>
7.21,2.27,-14.26,A,20,23
10.81,8.27,-8.46,A,35,25
9.41,-1.33,-5.66,A,37,29

> <-In-Situ Starting Energy>
-510.088527

> <-In-Situ Final Energy>
-50.7276873

> <In-Situ Gradient>
0.000936138197

> <Favorable Total>
14

> <Unfavorable Total>
0

> <Charge Total>
1

> <Hydrophobic Total>
12

> <HydrogenBond Total>
1

> <Other Total>
0

> <Favorable A:LYS6>
0

> <Favorable A:ARG55>
0

> <Favorable A:LEU58>
0

> <Favorable A:LEU61>
1

> <Favorable A:ILE62>
0

> <Favorable A:GLY64>
0

> <Favorable A:SER65>
0

> <Favorable A:TRP66>
0

> <Favorable A:SER69>
0

> <Favorable A:VAL70>
0

> <Favorable A:PRO73>
0

> <Favorable A:ALA74>
0

> <Favorable A:PHE76>
1

> <Favorable A:ALA77>
0

> <Favorable A:THR78>
0

> <Favorable A:GLU79>
0

> <Favorable A:PHE82>
0

> <Favorable A:ARG83>
0

> <Favorable A:LEU85>
2

> <Favorable A:THR86>
1

> <Favorable A:TRP89>
7

> <Favorable A:THR90>
0

> <Favorable A:ASN93>
0

> <Favorable A:HIS94>
0

> <Favorable A:SER96>
0

> <Favorable A:VAL97>
0

> <Favorable A:TRP98>
0

> <Favorable A:PHE140>
0

> <Favorable A:LEU141>
0

> <Favorable A:ASN144>
0

> <Favorable A:ILE148>
0

> <Favorable A:ILE150>
0

> <Favorable A:HIS151>
0

> <Favorable A:ILE152>
0

> <Favorable A:ALA154>
0

> <Favorable A:SER155>
0

> <Favorable A:ILE156>
0

> <Favorable A:GLY158>
0

> <Favorable A:TYR159>
0

> <Favorable A:ARG160>
0

> <Favorable A:ARG161>
0

> <Favorable A:ASN162>
0

> <Favorable A:LYS163>
0

> <Favorable A:SER167>
0

> <Favorable A:ASP168>
0

> <Favorable A:SER169>
0

> <Favorable A:ASN171>
0

> <Favorable A:PHE172>
1

> <Favorable A:THR173>
0

> <Favorable A:ARG174>
0

> <Favorable A:PHE175>
0

> <Favorable A:SER176>
0

> <Favorable A:SER177>
0

> <Favorable A:LEU178>
0

> <Favorable A:ILE179>
1

> <Favorable A:VAL180>
0

> <Favorable A:LEU181>
0

> <Favorable A:SER183>
0

> <Favorable A:THR184>
0

> <Favorable A:PHE186>
0

> <Favorable A:ILE187>
0

> <Favorable A:PHE188>
0

> <Favorable A:ILE189>
0

> <Favorable A:PRO190>
0

> <Favorable A:PHE191>
0

> <Favorable A:TYR240>
0

> <Favorable A:PHE243>
0

> <Favorable A:SER244>
0

> <Favorable A:PHE247>
0

> <Favorable A:PHE248>
0

> <Favorable A:VAL251>
0

> <Favorable A:TRP252>
0

> <Favorable A:SER254>
0

> <Favorable A:GLU255>
0

> <Favorable A:ARG256>
0

> <Favorable A:LEU257>
0

> <Favorable A:GLU258>
0

> <Favorable A:GLU259>
0

> <Favorable A:LEU261>
0

> <Favorable A:ILE262>
0

> <Favorable A:ILE263>
0

> <Favorable A:SER265>
0

> <Favorable A:GLN266>
0

> <Favorable A:MET268>
0

> <Favorable A:GLY269>
0

> <Favorable A:TYR272>
0

> <Favorable A:PRO273>
0

> <Unfavorable A:ARG55>
0

> <Unfavorable A:PRO73>
0

> <Unfavorable A:PHE76>
0

> <Unfavorable A:GLU79>
0

> <Unfavorable A:ARG83>
0

> <Unfavorable A:THR86>
0

> <Unfavorable A:TRP89>
0

> <Unfavorable A:THR90>
0

> <Unfavorable A:ASN93>
0

> <Unfavorable A:TRP98>
0

> <Unfavorable A:ASN144>
0

> <Unfavorable A:SER155>
0

> <Unfavorable A:GLY158>
0

> <Unfavorable A:TYR159>
0

> <Unfavorable A:ASN162>
0

> <Unfavorable A:ASP168>
0

> <Unfavorable A:ASN171>
0

> <Unfavorable A:THR173>
0

> <Unfavorable A:ARG174>
0

> <Unfavorable A:SER183>
0

> <Unfavorable A:THR184>
0

> <Unfavorable A:PHE186>
0

> <Unfavorable A:SER244>
0

> <Unfavorable A:SER254>
0

> <Unfavorable A:GLU255>
0

> <Unfavorable A:SER265>
0

> <Unfavorable A:GLN266>
0

> <Unfavorable A:GLY269>
0

> <Charge A:ARG55>
0

> <Charge A:PHE76>
0

> <Charge A:GLU79>
0

> <Charge A:PHE82>
0

> <Charge A:ARG83>
0

> <Charge A:TRP89>
1

> <Charge A:HIS94>
0

> <Charge A:TRP98>
0

> <Charge A:TYR159>
0

> <Charge A:ARG161>
0

> <Charge A:LYS163>
0

> <Charge A:ASP168>
0

> <Charge A:PHE172>
0

> <Charge A:ARG174>
0

> <Charge A:PHE175>
0

> <Charge A:PHE188>
0

> <Charge A:PHE247>
0

> <Charge A:PHE248>
0

> <Hydrophobic A:LEU58>
0

> <Hydrophobic A:LEU61>
1

> <Hydrophobic A:ILE62>
0

> <Hydrophobic A:TRP66>
0

> <Hydrophobic A:VAL70>
0

> <Hydrophobic A:PRO73>
0

> <Hydrophobic A:ALA74>
0

> <Hydrophobic A:PHE76>
1

> <Hydrophobic A:ALA77>
0

> <Hydrophobic A:THR78>
0

> <Hydrophobic A:PHE82>
0

> <Hydrophobic A:ARG83>
0

> <Hydrophobic A:LEU85>
2

> <Hydrophobic A:TRP89>
6

> <Hydrophobic A:THR90>
0

> <Hydrophobic A:ASN93>
0

> <Hydrophobic A:HIS94>
0

> <Hydrophobic A:VAL97>
0

> <Hydrophobic A:TRP98>
0

> <Hydrophobic A:PHE140>
0

> <Hydrophobic A:LEU141>
0

> <Hydrophobic A:ILE148>
0

> <Hydrophobic A:ILE150>
0

> <Hydrophobic A:HIS151>
0

> <Hydrophobic A:ILE152>
0

> <Hydrophobic A:ALA154>
0

> <Hydrophobic A:SER155>
0

> <Hydrophobic A:ILE156>
0

> <Hydrophobic A:GLY158>
0

> <Hydrophobic A:TYR159>
0

> <Hydrophobic A:ARG160>
0

> <Hydrophobic A:ARG161>
0

> <Hydrophobic A:ASP168>
0

> <Hydrophobic A:ASN171>
0

> <Hydrophobic A:PHE172>
1

> <Hydrophobic A:ARG174>
0

> <Hydrophobic A:PHE175>
0

> <Hydrophobic A:LEU178>
0

> <Hydrophobic A:ILE179>
1

> <Hydrophobic A:VAL180>
0

> <Hydrophobic A:LEU181>
0

> <Hydrophobic A:PHE186>
0

> <Hydrophobic A:ILE187>
0

> <Hydrophobic A:PHE188>
0

> <Hydrophobic A:ILE189>
0

> <Hydrophobic A:PRO190>
0

> <Hydrophobic A:PHE191>
0

> <Hydrophobic A:TYR240>
0

> <Hydrophobic A:PHE243>
0

> <Hydrophobic A:PHE247>
0

> <Hydrophobic A:PHE248>
0

> <Hydrophobic A:VAL251>
0

> <Hydrophobic A:TRP252>
0

> <Hydrophobic A:SER254>
0

> <Hydrophobic A:LEU261>
0

> <Hydrophobic A:ILE262>
0

> <Hydrophobic A:ILE263>
0

> <Hydrophobic A:TYR272>
0

> <Hydrophobic A:PRO273>
0

> <HydrogenBond A:LYS6>
0

> <HydrogenBond A:ARG55>
0

> <HydrogenBond A:GLY64>
0

> <HydrogenBond A:SER65>
0

> <HydrogenBond A:TRP66>
0

> <HydrogenBond A:SER69>
0

> <HydrogenBond A:PRO73>
0

> <HydrogenBond A:ALA74>
0

> <HydrogenBond A:PHE76>
0

> <HydrogenBond A:ALA77>
0

> <HydrogenBond A:THR78>
0

> <HydrogenBond A:GLU79>
0

> <HydrogenBond A:PHE82>
0

> <HydrogenBond A:ARG83>
0

> <HydrogenBond A:LEU85>
0

> <HydrogenBond A:THR86>
1

> <HydrogenBond A:TRP89>
0

> <HydrogenBond A:THR90>
0

> <HydrogenBond A:ASN93>
0

> <HydrogenBond A:HIS94>
0

> <HydrogenBond A:SER96>
0

> <HydrogenBond A:TRP98>
0

> <HydrogenBond A:ASN144>
0

> <HydrogenBond A:HIS151>
0

> <HydrogenBond A:ILE152>
0

> <HydrogenBond A:ALA154>
0

> <HydrogenBond A:SER155>
0

> <HydrogenBond A:ILE156>
0

> <HydrogenBond A:GLY158>
0

> <HydrogenBond A:TYR159>
0

> <HydrogenBond A:ASN162>
0

> <HydrogenBond A:LYS163>
0

> <HydrogenBond A:SER167>
0

> <HydrogenBond A:ASP168>
0

> <HydrogenBond A:SER169>
0

> <HydrogenBond A:ASN171>
0

> <HydrogenBond A:PHE172>
0

> <HydrogenBond A:THR173>
0

> <HydrogenBond A:ARG174>
0

> <HydrogenBond A:PHE175>
0

> <HydrogenBond A:SER176>
0

> <HydrogenBond A:SER177>
0

> <HydrogenBond A:ILE179>
0

> <HydrogenBond A:VAL180>
0

> <HydrogenBond A:SER183>
0

> <HydrogenBond A:THR184>
0

> <HydrogenBond A:PHE186>
0

> <HydrogenBond A:ILE187>
0

> <HydrogenBond A:PRO190>
0

> <HydrogenBond A:TYR240>
0

> <HydrogenBond A:PHE243>
0

> <HydrogenBond A:SER244>
0

> <HydrogenBond A:PHE247>
0

> <HydrogenBond A:VAL251>
0

> <HydrogenBond A:SER254>
0

> <HydrogenBond A:GLU255>
0

> <HydrogenBond A:ARG256>
0

> <HydrogenBond A:LEU257>
0

> <HydrogenBond A:GLU258>
0

> <HydrogenBond A:GLU259>
0

> <HydrogenBond A:ILE262>
0

> <HydrogenBond A:SER265>
0

> <HydrogenBond A:GLN266>
0

> <HydrogenBond A:MET268>
0

> <HydrogenBond A:GLY269>
0

> <HydrogenBond A:PRO273>
0

> <Other A:SER69>
0

> <Other A:TRP89>
0

> <Other A:TYR159>
0

> <Other A:PHE172>
0

> <Other A:SER176>
0

> <Other A:SER265>
0

$$$$
77547
  SciTegic09122300493D

 22 22  0  0  0  0            999 V2000
    7.9515    2.2541    2.8837 O   0  0  0  1  0  0
    4.0587    0.7470   -0.6374 O   0  5  0  1  0  0
    6.0447   -1.4231   -0.4675 O   0  0  0  1  0  0
    6.1923    3.8281    2.6447 O   0  0  0  1  0  0
    6.6416    2.3394    0.9187 C   0  0  0  1  0  0
    5.7546    2.2102   -0.0878 C   0  0  0  1  0  0
    7.7726    1.4183    0.5566 C   0  0  0  1  0  0
    5.2602    0.8674   -0.4112 C   0  0  0  1  0  0
    6.2815   -0.2645   -0.3220 C   0  0  0  1  0  0
    7.6228    0.1783    0.0476 C   0  0  0  1  0  0
    6.9580    2.8093    2.1391 C   0  0  0  1  0  0
    9.1016    3.0392    3.0561 C   0  0  0  1  0  0
    8.7690    4.1714    4.0086 C   0  0  0  1  0  0
    6.1373    3.8402    3.5945 H   0  0
    5.3239    3.0584   -0.5811 H   0  0
    8.7719    1.7558    0.7478 H   0  0
    8.4439   -0.4907   -0.1064 H   0  0
    9.4816    3.3728    2.0994 H   0  0
    9.9033    2.4273    3.4638 H   0  0
    8.3090    3.8157    4.9208 H   0  0
    8.1238    4.9423    3.6022 H   0  0
    9.6648    4.6945    4.2846 H   0  0
  1 11  1  0
  1 12  1  0
  2  8  1  0
  3  9  2  0
  4 11  1  0
  5  6  1  0
  5  7  1  0
  5 11  2  0
  6  8  2  0
  7 10  2  0
  8  9  1  0
  9 10  1  0
 12 13  1  0
  4 14  1  0
  6 15  1  0
  7 16  1  0
 10 17  1  0
 12 18  1  0
 12 19  1  0
 13 20  1  0
 13 21  1  0
 13 22  1  0
M  CHG  1   2  -1
M  END
> <Name>
77547

> <Binding Energy>
-173.2303

> <Ligand Energy>
103.393

> <Protein Energy>
-7801.1566

> <Complex Energy>
-7870.9939

> <Complex Entropy>
-31.4765

> <Protein Entropy>
-31.4717

> <Ligand Entropy>
-17.951

> <Entropic Energy>
17.9462

> <AbsoluteEnergy>
17.0096

> <ConfNumber>
7

> <Ionization pH>
7.5

> <IonizationIndex>
1

> <MOL_NUMBER>
36

> <NumberOfIonizations>
1

> <NumberOfStereoisomers>
1

> <NumberOfTautomers>
2

> <PUBCHEM_ATOM_DEF_STEREO_COUNT>
0

> <PUBCHEM_ATOM_UDEF_STEREO_COUNT>
0

> <PUBCHEM_BOND_DEF_STEREO_COUNT>
0

> <PUBCHEM_BOND_UDEF_STEREO_COUNT>
0

> <PUBCHEM_CACTVS_TAUTO_COUNT>
12

> <PUBCHEM_COMPONENT_COUNT>
1

> <PUBCHEM_COMPOUND_CID>
77547

> <PUBCHEM_CONFORMER_DIVERSEORDER>
1
3
6
5
15
8
13
7
4
2
12
11
10
18
14
16
17
9

> <PUBCHEM_CONFORMER_ID>
00012EEB00000001

> <PUBCHEM_CONFORMER_RMSD>
0.6

> <PUBCHEM_COORDINATE_TYPE>
2
5
10

> <PUBCHEM_EFFECTIVE_ROTOR_COUNT>
3

> <PUBCHEM_FEATURE_SELFOVERLAP>
20.301

> <PUBCHEM_HEAVY_ATOM_COUNT>
13

> <PUBCHEM_ISOTOPIC_ATOM_COUNT>
0

> <PUBCHEM_MMFF94_ENERGY>
29.7516

> <PUBCHEM_MMFF94_PARTIAL_CHARGES>
17
1 -0.43
10 -0.15
11 0.63
12 0.28
14 0.15
15 0.15
16 0.15
2 -0.53
22 0.45
23 0.45
3 -0.53
4 -0.57
5 0.09
6 -0.15
7 -0.15
8 0.08
9 0.08

> <PUBCHEM_PHARMACOPHORE_FEATURES>
4
1 2 donor
1 3 donor
1 4 acceptor
6 5 6 7 8 9 10 rings

> <PUBCHEM_SHAPE_FINGERPRINT>
10465860 250 18341889659203190384
10608611 8 18339355374547451272
10751810 167 18040723558483356854
12032990 46 18336550529096014755
12186901 62 17894909611962623047
12716758 59 18336260236371831123
12932764 1 17385710400930069944
13690532 89 18412545409779907682
14325111 11 18409164428482780640
14911166 2 18338793420857377861
14993402 34 17022620896482068782
15219456 202 18271238426009616712
15775835 57 18041560234875664561
16945 1 18188764076084732811
17804303 29 18410298016333369964
17870717 6 18198080109506066174
18186145 218 18408877425825280648
1986462 14 18408324371528958262
200 152 17561358491827012527
20201158 50 18272374152838510374
20645476 183 16877941676226859475
20871999 31 18260276248025648606
23402539 116 18341605993081177837
23403322 49 18270688550316667062
23552423 10 18042684077619688514
23559900 14 18340765958615060706
2748010 2 18337099185229508737
6333449 129 18410008832312414693
69090 78 18201432640211875751
7364860 26 18196373843437612088
8809292 202 18335425715631470210

> <PUBCHEM_SHAPE_MULTIPOLES>
244.06
6.99
1.67
0.68
5.26
0.11
0
-1.59
-1.33
-0.52
0.08
0.1
0.01
0.57

> <PUBCHEM_SHAPE_SELFOVERLAP>
506.833

> <PUBCHEM_SHAPE_VOLUME>
139.9

> <RelativeEnergy>
5.63737

> <StereoisomerIndex>
1

> <TautomerIndex>
2

> <POSE_NUMBER>
1

> <LibDockScore>
53.9382

> <HotSpots>
7.61,1.27,1.95,A,80,7
6.61,4.27,3.15,A,86,12
7.81,4.27,4.14,A,90,13

> <-In-Situ Starting Energy>
-2022.18749

> <-In-Situ Final Energy>
7.96100754

> <In-Situ Gradient>
0.0009830900217

> <Favorable Total>
10

> <Unfavorable Total>
0

> <Charge Total>
2

> <Hydrophobic Total>
3

> <HydrogenBond Total>
7

> <Other Total>
0

> <Favorable A:LYS6>
0

> <Favorable A:ARG55>
2

> <Favorable A:LEU58>
0

> <Favorable A:LEU61>
0

> <Favorable A:ILE62>
0

> <Favorable A:GLY64>
0

> <Favorable A:SER65>
0

> <Favorable A:TRP66>
0

> <Favorable A:SER69>
0

> <Favorable A:VAL70>
0

> <Favorable A:PRO73>
0

> <Favorable A:ALA74>
0

> <Favorable A:PHE76>
0

> <Favorable A:ALA77>
0

> <Favorable A:THR78>
0

> <Favorable A:GLU79>
0

> <Favorable A:PHE82>
0

> <Favorable A:ARG83>
0

> <Favorable A:LEU85>
0

> <Favorable A:THR86>
0

> <Favorable A:TRP89>
0

> <Favorable A:THR90>
0

> <Favorable A:ASN93>
0

> <Favorable A:HIS94>
0

> <Favorable A:SER96>
0

> <Favorable A:VAL97>
0

> <Favorable A:TRP98>
0

> <Favorable A:PHE140>
0

> <Favorable A:LEU141>
0

> <Favorable A:ASN144>
0

> <Favorable A:ILE148>
0

> <Favorable A:ILE150>
0

> <Favorable A:HIS151>
0

> <Favorable A:ILE152>
0

> <Favorable A:ALA154>
0

> <Favorable A:SER155>
0

> <Favorable A:ILE156>
0

> <Favorable A:GLY158>
0

> <Favorable A:TYR159>
0

> <Favorable A:ARG160>
0

> <Favorable A:ARG161>
0

> <Favorable A:ASN162>
0

> <Favorable A:LYS163>
0

> <Favorable A:SER167>
0

> <Favorable A:ASP168>
0

> <Favorable A:SER169>
0

> <Favorable A:ASN171>
0

> <Favorable A:PHE172>
0

> <Favorable A:THR173>
0

> <Favorable A:ARG174>
0

> <Favorable A:PHE175>
0

> <Favorable A:SER176>
0

> <Favorable A:SER177>
0

> <Favorable A:LEU178>
0

> <Favorable A:ILE179>
0

> <Favorable A:VAL180>
0

> <Favorable A:LEU181>
0

> <Favorable A:SER183>
0

> <Favorable A:THR184>
0

> <Favorable A:PHE186>
0

> <Favorable A:ILE187>
1

> <Favorable A:PHE188>
0

> <Favorable A:ILE189>
0

> <Favorable A:PRO190>
0

> <Favorable A:PHE191>
1

> <Favorable A:TYR240>
1

> <Favorable A:PHE243>
0

> <Favorable A:SER244>
1

> <Favorable A:PHE247>
0

> <Favorable A:PHE248>
1

> <Favorable A:VAL251>
0

> <Favorable A:TRP252>
0

> <Favorable A:SER254>
0

> <Favorable A:GLU255>
0

> <Favorable A:ARG256>
0

> <Favorable A:LEU257>
0

> <Favorable A:GLU258>
0

> <Favorable A:GLU259>
0

> <Favorable A:LEU261>
0

> <Favorable A:ILE262>
0

> <Favorable A:ILE263>
0

> <Favorable A:SER265>
0

> <Favorable A:GLN266>
0

> <Favorable A:MET268>
0

> <Favorable A:GLY269>
1

> <Favorable A:TYR272>
0

> <Favorable A:PRO273>
2

> <Unfavorable A:ARG55>
0

> <Unfavorable A:PRO73>
0

> <Unfavorable A:PHE76>
0

> <Unfavorable A:GLU79>
0

> <Unfavorable A:ARG83>
0

> <Unfavorable A:THR86>
0

> <Unfavorable A:TRP89>
0

> <Unfavorable A:THR90>
0

> <Unfavorable A:ASN93>
0

> <Unfavorable A:TRP98>
0

> <Unfavorable A:ASN144>
0

> <Unfavorable A:SER155>
0

> <Unfavorable A:GLY158>
0

> <Unfavorable A:TYR159>
0

> <Unfavorable A:ASN162>
0

> <Unfavorable A:ASP168>
0

> <Unfavorable A:ASN171>
0

> <Unfavorable A:THR173>
0

> <Unfavorable A:ARG174>
0

> <Unfavorable A:SER183>
0

> <Unfavorable A:THR184>
0

> <Unfavorable A:PHE186>
0

> <Unfavorable A:SER244>
0

> <Unfavorable A:SER254>
0

> <Unfavorable A:GLU255>
0

> <Unfavorable A:SER265>
0

> <Unfavorable A:GLN266>
0

> <Unfavorable A:GLY269>
0

> <Charge A:ARG55>
2

> <Charge A:PHE76>
0

> <Charge A:GLU79>
0

> <Charge A:PHE82>
0

> <Charge A:ARG83>
0

> <Charge A:TRP89>
0

> <Charge A:HIS94>
0

> <Charge A:TRP98>
0

> <Charge A:TYR159>
0

> <Charge A:ARG161>
0

> <Charge A:LYS163>
0

> <Charge A:ASP168>
0

> <Charge A:PHE172>
0

> <Charge A:ARG174>
0

> <Charge A:PHE175>
0

> <Charge A:PHE188>
0

> <Charge A:PHE247>
0

> <Charge A:PHE248>
0

> <Hydrophobic A:LEU58>
0

> <Hydrophobic A:LEU61>
0

> <Hydrophobic A:ILE62>
0

> <Hydrophobic A:TRP66>
0

> <Hydrophobic A:VAL70>
0

> <Hydrophobic A:PRO73>
0

> <Hydrophobic A:ALA74>
0

> <Hydrophobic A:PHE76>
0

> <Hydrophobic A:ALA77>
0

> <Hydrophobic A:THR78>
0

> <Hydrophobic A:PHE82>
0

> <Hydrophobic A:ARG83>
0

> <Hydrophobic A:LEU85>
0

> <Hydrophobic A:TRP89>
0

> <Hydrophobic A:THR90>
0

> <Hydrophobic A:ASN93>
0

> <Hydrophobic A:HIS94>
0

> <Hydrophobic A:VAL97>
0

> <Hydrophobic A:TRP98>
0

> <Hydrophobic A:PHE140>
0

> <Hydrophobic A:LEU141>
0

> <Hydrophobic A:ILE148>
0

> <Hydrophobic A:ILE150>
0

> <Hydrophobic A:HIS151>
0

> <Hydrophobic A:ILE152>
0

> <Hydrophobic A:ALA154>
0

> <Hydrophobic A:SER155>
0

> <Hydrophobic A:ILE156>
0

> <Hydrophobic A:GLY158>
0

> <Hydrophobic A:TYR159>
0

> <Hydrophobic A:ARG160>
0

> <Hydrophobic A:ARG161>
0

> <Hydrophobic A:ASP168>
0

> <Hydrophobic A:ASN171>
0

> <Hydrophobic A:PHE172>
0

> <Hydrophobic A:ARG174>
0

> <Hydrophobic A:PHE175>
0

> <Hydrophobic A:LEU178>
0

> <Hydrophobic A:ILE179>
0

> <Hydrophobic A:VAL180>
0

> <Hydrophobic A:LEU181>
0

> <Hydrophobic A:PHE186>
0

> <Hydrophobic A:ILE187>
1

> <Hydrophobic A:PHE188>
0

> <Hydrophobic A:ILE189>
0

> <Hydrophobic A:PRO190>
0

> <Hydrophobic A:PHE191>
1

> <Hydrophobic A:TYR240>
0

> <Hydrophobic A:PHE243>
0

> <Hydrophobic A:PHE247>
0

> <Hydrophobic A:PHE248>
1

> <Hydrophobic A:VAL251>
0

> <Hydrophobic A:TRP252>
0

> <Hydrophobic A:SER254>
0

> <Hydrophobic A:LEU261>
0

> <Hydrophobic A:ILE262>
0

> <Hydrophobic A:ILE263>
0

> <Hydrophobic A:TYR272>
0

> <Hydrophobic A:PRO273>
0

> <HydrogenBond A:LYS6>
0

> <HydrogenBond A:ARG55>
2

> <HydrogenBond A:GLY64>
0

> <HydrogenBond A:SER65>
0

> <HydrogenBond A:TRP66>
0

> <HydrogenBond A:SER69>
0

> <HydrogenBond A:PRO73>
0

> <HydrogenBond A:ALA74>
0

> <HydrogenBond A:PHE76>
0

> <HydrogenBond A:ALA77>
0

> <HydrogenBond A:THR78>
0

> <HydrogenBond A:GLU79>
0

> <HydrogenBond A:PHE82>
0

> <HydrogenBond A:ARG83>
0

> <HydrogenBond A:LEU85>
0

> <HydrogenBond A:THR86>
0

> <HydrogenBond A:TRP89>
0

> <HydrogenBond A:THR90>
0

> <HydrogenBond A:ASN93>
0

> <HydrogenBond A:HIS94>
0

> <HydrogenBond A:SER96>
0

> <HydrogenBond A:TRP98>
0

> <HydrogenBond A:ASN144>
0

> <HydrogenBond A:HIS151>
0

> <HydrogenBond A:ILE152>
0

> <HydrogenBond A:ALA154>
0

> <HydrogenBond A:SER155>
0

> <HydrogenBond A:ILE156>
0

> <HydrogenBond A:GLY158>
0

> <HydrogenBond A:TYR159>
0

> <HydrogenBond A:ASN162>
0

> <HydrogenBond A:LYS163>
0

> <HydrogenBond A:SER167>
0

> <HydrogenBond A:ASP168>
0

> <HydrogenBond A:SER169>
0

> <HydrogenBond A:ASN171>
0

> <HydrogenBond A:PHE172>
0

> <HydrogenBond A:THR173>
0

> <HydrogenBond A:ARG174>
0

> <HydrogenBond A:PHE175>
0

> <HydrogenBond A:SER176>
0

> <HydrogenBond A:SER177>
0

> <HydrogenBond A:ILE179>
0

> <HydrogenBond A:VAL180>
0

> <HydrogenBond A:SER183>
0

> <HydrogenBond A:THR184>
0

> <HydrogenBond A:PHE186>
0

> <HydrogenBond A:ILE187>
0

> <HydrogenBond A:PRO190>
0

> <HydrogenBond A:TYR240>
1

> <HydrogenBond A:PHE243>
0

> <HydrogenBond A:SER244>
1

> <HydrogenBond A:PHE247>
0

> <HydrogenBond A:VAL251>
0

> <HydrogenBond A:SER254>
0

> <HydrogenBond A:GLU255>
0

> <HydrogenBond A:ARG256>
0

> <HydrogenBond A:LEU257>
0

> <HydrogenBond A:GLU258>
0

> <HydrogenBond A:GLU259>
0

> <HydrogenBond A:ILE262>
0

> <HydrogenBond A:SER265>
0

> <HydrogenBond A:GLN266>
0

> <HydrogenBond A:MET268>
0

> <HydrogenBond A:GLY269>
1

> <HydrogenBond A:PRO273>
2

> <Other A:SER69>
0

> <Other A:TRP89>
0

> <Other A:TYR159>
0

> <Other A:PHE172>
0

> <Other A:SER176>
0

> <Other A:SER265>
0

$$$$
83412
  SciTegic09122300493D

 27 28  0  0  0  0            999 V2000
    6.0512    0.5347   -2.5798 O   0  0  0  1  0  0
    7.5667    3.1970    3.0403 O   0  0  0  1  0  0
    3.7455    1.9510    0.6863 O   0  0  0  1  0  0
    4.0928    0.1292   -1.5543 O   0  0  0  1  0  0
    8.0160    1.1184   -1.4419 C   0  0  0  1  0  0
    7.2044    1.3339   -2.7011 C   0  0  1  1  0  0
    7.2377    1.5432   -0.2436 C   0  0  0  1  0  0
    5.7836    1.3498   -0.3744 C   0  0  0  1  0  0
    7.9605    0.9089   -3.9475 C   0  0  0  1  0  0
    7.8020    2.1973    0.7831 C   0  0  0  1  0  0
    5.3078    0.7074   -1.4688 C   0  0  0  1  0  0
    4.9487    1.9131    0.7257 C   0  0  0  1  0  0
    7.0105    2.6538    1.9315 C   0  0  0  1  0  0
    5.6668    2.5380    1.8772 C   0  0  0  1  0  0
    8.9822    3.2205    3.1778 C   0  0  0  1  0  0
    4.2437   -0.4781   -2.2823 H   0  0
    8.9144    1.7162   -1.4829 H   0  0
    8.2753    0.0649   -1.3469 H   0  0
    6.9173    2.3822   -2.7864 H   0  0
    7.3042    0.9234   -4.8162 H   0  0
    8.3528   -0.0999   -3.8453 H   0  0
    8.8019    1.5795   -4.1084 H   0  0
    8.8569    2.3803    0.7713 H   0  0
    5.0820    2.9285    2.6730 H   0  0
    9.4947    3.6287    2.3270 H   0  0
    9.4076    2.2324    3.2619 H   0  0
    9.2576    3.8096    4.0518 H   0  0
  1  6  1  0
  1 11  1  0
  2 13  1  0
  2 15  1  0
  3 12  2  0
  4 11  1  0
  5  6  1  0
  5  7  1  0
  6  9  1  0
  7  8  1  0
  7 10  2  0
  8 11  2  0
  8 12  1  0
 10 13  1  0
 12 14  1  0
 13 14  2  0
  4 16  1  0
  5 17  1  0
  5 18  1  0
  6 19  1  0
  9 20  1  0
  9 21  1  0
  9 22  1  0
 10 23  1  0
 14 24  1  0
 15 25  1  0
 15 26  1  0
 15 27  1  0
M  END
> <Name>
83412

> <Binding Energy>
-56.9142

> <Ligand Energy>
44.8164

> <Protein Energy>
-7801.1566

> <Complex Energy>
-7813.2544

> <Complex Entropy>
-31.4772

> <Protein Entropy>
-31.4717

> <Ligand Entropy>
-18.3584

> <Entropic Energy>
18.3529

> <AbsoluteEnergy>
19.8038

> <ConfNumber>
1

> <Ionization pH>
7.5

> <IonizationIndex>
1

> <MOL_NUMBER>
38

> <NumberOfIonizations>
1

> <NumberOfStereoisomers>
1

> <NumberOfTautomers>
2

> <PUBCHEM_ATOM_DEF_STEREO_COUNT>
1

> <PUBCHEM_ATOM_UDEF_STEREO_COUNT>
0

> <PUBCHEM_BOND_DEF_STEREO_COUNT>
0

> <PUBCHEM_BOND_UDEF_STEREO_COUNT>
0

> <PUBCHEM_CACTVS_TAUTO_COUNT>
13

> <PUBCHEM_COMPONENT_COUNT>
1

> <PUBCHEM_COMPOUND_CID>
83412

> <PUBCHEM_CONFORMER_DIVERSEORDER>
1
2

> <PUBCHEM_CONFORMER_ID>
000145D400000001

> <PUBCHEM_CONFORMER_RMSD>
0.6

> <PUBCHEM_COORDINATE_TYPE>
2
5
10

> <PUBCHEM_EFFECTIVE_ROTOR_COUNT>
1.6

> <PUBCHEM_FEATURE_SELFOVERLAP>
25.398

> <PUBCHEM_HEAVY_ATOM_COUNT>
15

> <PUBCHEM_ISOTOPIC_ATOM_COUNT>
0

> <PUBCHEM_MMFF94_ENERGY>
51.9313

> <PUBCHEM_MMFF94_PARTIAL_CHARGES>
17
1 -0.43
10 -0.15
11 0.63
12 0.08
13 0.08
14 -0.15
15 0.28
2 -0.36
22 0.15
23 0.15
24 0.45
3 -0.53
4 -0.57
5 0.14
6 0.28
7 -0.14
8 0.09

> <PUBCHEM_PHARMACOPHORE_FEATURES>
5
1 2 acceptor
1 3 donor
1 4 acceptor
6 1 5 6 7 8 11 rings
6 7 8 10 12 13 14 rings

> <PUBCHEM_SHAPE_FINGERPRINT>
10608611 8 18262515892971577445
10967382 1 18410855438658619569
10980938 120 18410292488747526297
11471102 20 18410571773412339221
11680986 33 18335994098665662954
12644460 14 18261117322364481256
13140716 1 18266733769799192672
13380535 21 18409737286920368667
13380535 76 18410291432248894402
13897977 150 18410291423790874101
14251717 144 18339636742444839455
14325111 11 18410575059315580105
14897335 6 18410853286985609764
15196674 1 18410856585414881111
15219456 202 18261119573359724313
15442244 35 18123751946119627393
15536298 74 18343021064815040132
15775835 57 18410296929728022508
16945 1 18339919428127658336
18186145 218 18341335474824722829
193761 8 17763180641417216457
20510252 161 17838059556453661976
20559304 39 18338514110728683714
20645476 183 17969800737475020262
20645477 70 18337666396386268559
21501502 16 18410284847958684006
22344851 262 18041844024845269540
2334 1 18411416232823437835
23402539 116 18272081742500647853
23402655 69 18342731897947963781
23463225 33 18266176132588219947
23559900 14 18200599215663919892
25 1 18409445894832581532
2748010 2 18410581699081721247
3071541 37 18335424542957321948
449060 62 18412547600160435729
528862 383 18334290924988876218
528886 8 18410852200401153504
53812653 166 18342454880530062832
63268167 104 18412547574311458929
69090 78 18411696612504340773
7364860 26 18341613660104339470

> <PUBCHEM_SHAPE_MULTIPOLES>
285.22
6
2.35
0.63
2.22
1.27
0
-3
-0.57
-0.71
0.06
-0.06
-0.04
-0.23

> <PUBCHEM_SHAPE_SELFOVERLAP>
613.011

> <PUBCHEM_SHAPE_VOLUME>
157.7

> <RelativeEnergy>
0

> <StereoisomerIndex>
1

> <TautomerIndex>
2

> <POSE_NUMBER>
1

> <LibDockScore>
78.4716

> <HotSpots>
6.41,0.47,-4.25,A,40,9
4.81,0.47,-1.05,A,56,11
9.21,2.67,2.54,A,84,15

> <-In-Situ Starting Energy>
-38.9706359

> <-In-Situ Final Energy>
18.5828286

> <In-Situ Gradient>
0.0009092234145

> <Favorable Total>
13

> <Unfavorable Total>
0

> <Charge Total>
0

> <Hydrophobic Total>
7

> <HydrogenBond Total>
6

> <Other Total>
0

> <Favorable A:LYS6>
0

> <Favorable A:ARG55>
3

> <Favorable A:LEU58>
0

> <Favorable A:LEU61>
0

> <Favorable A:ILE62>
0

> <Favorable A:GLY64>
0

> <Favorable A:SER65>
0

> <Favorable A:TRP66>
0

> <Favorable A:SER69>
0

> <Favorable A:VAL70>
0

> <Favorable A:PRO73>
0

> <Favorable A:ALA74>
0

> <Favorable A:PHE76>
0

> <Favorable A:ALA77>
0

> <Favorable A:THR78>
0

> <Favorable A:GLU79>
0

> <Favorable A:PHE82>
0

> <Favorable A:ARG83>
0

> <Favorable A:LEU85>
0

> <Favorable A:THR86>
0

> <Favorable A:TRP89>
2

> <Favorable A:THR90>
0

> <Favorable A:ASN93>
1

> <Favorable A:HIS94>
0

> <Favorable A:SER96>
0

> <Favorable A:VAL97>
1

> <Favorable A:TRP98>
0

> <Favorable A:PHE140>
0

> <Favorable A:LEU141>
0

> <Favorable A:ASN144>
0

> <Favorable A:ILE148>
0

> <Favorable A:ILE150>
0

> <Favorable A:HIS151>
0

> <Favorable A:ILE152>
0

> <Favorable A:ALA154>
0

> <Favorable A:SER155>
0

> <Favorable A:ILE156>
0

> <Favorable A:GLY158>
0

> <Favorable A:TYR159>
0

> <Favorable A:ARG160>
0

> <Favorable A:ARG161>
0

> <Favorable A:ASN162>
0

> <Favorable A:LYS163>
0

> <Favorable A:SER167>
0

> <Favorable A:ASP168>
0

> <Favorable A:SER169>
0

> <Favorable A:ASN171>
0

> <Favorable A:PHE172>
0

> <Favorable A:THR173>
0

> <Favorable A:ARG174>
0

> <Favorable A:PHE175>
0

> <Favorable A:SER176>
0

> <Favorable A:SER177>
0

> <Favorable A:LEU178>
0

> <Favorable A:ILE179>
0

> <Favorable A:VAL180>
0

> <Favorable A:LEU181>
0

> <Favorable A:SER183>
0

> <Favorable A:THR184>
0

> <Favorable A:PHE186>
0

> <Favorable A:ILE187>
1

> <Favorable A:PHE188>
0

> <Favorable A:ILE189>
0

> <Favorable A:PRO190>
0

> <Favorable A:PHE191>
0

> <Favorable A:TYR240>
0

> <Favorable A:PHE243>
0

> <Favorable A:SER244>
1

> <Favorable A:PHE247>
3

> <Favorable A:PHE248>
0

> <Favorable A:VAL251>
0

> <Favorable A:TRP252>
0

> <Favorable A:SER254>
0

> <Favorable A:GLU255>
0

> <Favorable A:ARG256>
0

> <Favorable A:LEU257>
0

> <Favorable A:GLU258>
0

> <Favorable A:GLU259>
0

> <Favorable A:LEU261>
0

> <Favorable A:ILE262>
0

> <Favorable A:ILE263>
0

> <Favorable A:SER265>
0

> <Favorable A:GLN266>
0

> <Favorable A:MET268>
0

> <Favorable A:GLY269>
1

> <Favorable A:TYR272>
0

> <Favorable A:PRO273>
0

> <Unfavorable A:ARG55>
0

> <Unfavorable A:PRO73>
0

> <Unfavorable A:PHE76>
0

> <Unfavorable A:GLU79>
0

> <Unfavorable A:ARG83>
0

> <Unfavorable A:THR86>
0

> <Unfavorable A:TRP89>
0

> <Unfavorable A:THR90>
0

> <Unfavorable A:ASN93>
0

> <Unfavorable A:TRP98>
0

> <Unfavorable A:ASN144>
0

> <Unfavorable A:SER155>
0

> <Unfavorable A:GLY158>
0

> <Unfavorable A:TYR159>
0

> <Unfavorable A:ASN162>
0

> <Unfavorable A:ASP168>
0

> <Unfavorable A:ASN171>
0

> <Unfavorable A:THR173>
0

> <Unfavorable A:ARG174>
0

> <Unfavorable A:SER183>
0

> <Unfavorable A:THR184>
0

> <Unfavorable A:PHE186>
0

> <Unfavorable A:SER244>
0

> <Unfavorable A:SER254>
0

> <Unfavorable A:GLU255>
0

> <Unfavorable A:SER265>
0

> <Unfavorable A:GLN266>
0

> <Unfavorable A:GLY269>
0

> <Charge A:ARG55>
0

> <Charge A:PHE76>
0

> <Charge A:GLU79>
0

> <Charge A:PHE82>
0

> <Charge A:ARG83>
0

> <Charge A:TRP89>
0

> <Charge A:HIS94>
0

> <Charge A:TRP98>
0

> <Charge A:TYR159>
0

> <Charge A:ARG161>
0

> <Charge A:LYS163>
0

> <Charge A:ASP168>
0

> <Charge A:PHE172>
0

> <Charge A:ARG174>
0

> <Charge A:PHE175>
0

> <Charge A:PHE188>
0

> <Charge A:PHE247>
0

> <Charge A:PHE248>
0

> <Hydrophobic A:LEU58>
0

> <Hydrophobic A:LEU61>
0

> <Hydrophobic A:ILE62>
0

> <Hydrophobic A:TRP66>
0

> <Hydrophobic A:VAL70>
0

> <Hydrophobic A:PRO73>
0

> <Hydrophobic A:ALA74>
0

> <Hydrophobic A:PHE76>
0

> <Hydrophobic A:ALA77>
0

> <Hydrophobic A:THR78>
0

> <Hydrophobic A:PHE82>
0

> <Hydrophobic A:ARG83>
0

> <Hydrophobic A:LEU85>
0

> <Hydrophobic A:TRP89>
2

> <Hydrophobic A:THR90>
0

> <Hydrophobic A:ASN93>
0

> <Hydrophobic A:HIS94>
0

> <Hydrophobic A:VAL97>
1

> <Hydrophobic A:TRP98>
0

> <Hydrophobic A:PHE140>
0

> <Hydrophobic A:LEU141>
0

> <Hydrophobic A:ILE148>
0

> <Hydrophobic A:ILE150>
0

> <Hydrophobic A:HIS151>
0

> <Hydrophobic A:ILE152>
0

> <Hydrophobic A:ALA154>
0

> <Hydrophobic A:SER155>
0

> <Hydrophobic A:ILE156>
0

> <Hydrophobic A:GLY158>
0

> <Hydrophobic A:TYR159>
0

> <Hydrophobic A:ARG160>
0

> <Hydrophobic A:ARG161>
0

> <Hydrophobic A:ASP168>
0

> <Hydrophobic A:ASN171>
0

> <Hydrophobic A:PHE172>
0

> <Hydrophobic A:ARG174>
0

> <Hydrophobic A:PHE175>
0

> <Hydrophobic A:LEU178>
0

> <Hydrophobic A:ILE179>
0

> <Hydrophobic A:VAL180>
0

> <Hydrophobic A:LEU181>
0

> <Hydrophobic A:PHE186>
0

> <Hydrophobic A:ILE187>
1

> <Hydrophobic A:PHE188>
0

> <Hydrophobic A:ILE189>
0

> <Hydrophobic A:PRO190>
0

> <Hydrophobic A:PHE191>
0

> <Hydrophobic A:TYR240>
0

> <Hydrophobic A:PHE243>
0

> <Hydrophobic A:PHE247>
3

> <Hydrophobic A:PHE248>
0

> <Hydrophobic A:VAL251>
0

> <Hydrophobic A:TRP252>
0

> <Hydrophobic A:SER254>
0

> <Hydrophobic A:LEU261>
0

> <Hydrophobic A:ILE262>
0

> <Hydrophobic A:ILE263>
0

> <Hydrophobic A:TYR272>
0

> <Hydrophobic A:PRO273>
0

> <HydrogenBond A:LYS6>
0

> <HydrogenBond A:ARG55>
3

> <HydrogenBond A:GLY64>
0

> <HydrogenBond A:SER65>
0

> <HydrogenBond A:TRP66>
0

> <HydrogenBond A:SER69>
0

> <HydrogenBond A:PRO73>
0

> <HydrogenBond A:ALA74>
0

> <HydrogenBond A:PHE76>
0

> <HydrogenBond A:ALA77>
0

> <HydrogenBond A:THR78>
0

> <HydrogenBond A:GLU79>
0

> <HydrogenBond A:PHE82>
0

> <HydrogenBond A:ARG83>
0

> <HydrogenBond A:LEU85>
0

> <HydrogenBond A:THR86>
0

> <HydrogenBond A:TRP89>
0

> <HydrogenBond A:THR90>
0

> <HydrogenBond A:ASN93>
1

> <HydrogenBond A:HIS94>
0

> <HydrogenBond A:SER96>
0

> <HydrogenBond A:TRP98>
0

> <HydrogenBond A:ASN144>
0

> <HydrogenBond A:HIS151>
0

> <HydrogenBond A:ILE152>
0

> <HydrogenBond A:ALA154>
0

> <HydrogenBond A:SER155>
0

> <HydrogenBond A:ILE156>
0

> <HydrogenBond A:GLY158>
0

> <HydrogenBond A:TYR159>
0

> <HydrogenBond A:ASN162>
0

> <HydrogenBond A:LYS163>
0

> <HydrogenBond A:SER167>
0

> <HydrogenBond A:ASP168>
0

> <HydrogenBond A:SER169>
0

> <HydrogenBond A:ASN171>
0

> <HydrogenBond A:PHE172>
0

> <HydrogenBond A:THR173>
0

> <HydrogenBond A:ARG174>
0

> <HydrogenBond A:PHE175>
0

> <HydrogenBond A:SER176>
0

> <HydrogenBond A:SER177>
0

> <HydrogenBond A:ILE179>
0

> <HydrogenBond A:VAL180>
0

> <HydrogenBond A:SER183>
0

> <HydrogenBond A:THR184>
0

> <HydrogenBond A:PHE186>
0

> <HydrogenBond A:ILE187>
0

> <HydrogenBond A:PRO190>
0

> <HydrogenBond A:TYR240>
0

> <HydrogenBond A:PHE243>
0

> <HydrogenBond A:SER244>
1

> <HydrogenBond A:PHE247>
0

> <HydrogenBond A:VAL251>
0

> <HydrogenBond A:SER254>
0

> <HydrogenBond A:GLU255>
0

> <HydrogenBond A:ARG256>
0

> <HydrogenBond A:LEU257>
0

> <HydrogenBond A:GLU258>
0

> <HydrogenBond A:GLU259>
0

> <HydrogenBond A:ILE262>
0

> <HydrogenBond A:SER265>
0

> <HydrogenBond A:GLN266>
0

> <HydrogenBond A:MET268>
0

> <HydrogenBond A:GLY269>
1

> <HydrogenBond A:PRO273>
0

> <Other A:SER69>
0

> <Other A:TRP89>
0

> <Other A:TYR159>
0

> <Other A:PHE172>
0

> <Other A:SER176>
0

> <Other A:SER265>
0

$$$$
115149
  SciTegic09122300493D

 72 76  0  0  0  0            999 V2000
   16.7519    3.2647  -11.9837 O   0  0  0  1  0  0
   15.0596    4.8497  -12.2883 O   0  0  0  1  0  0
   16.3837    1.0887  -12.7829 O   0  0  0  1  0  0
   13.3457    3.2694  -10.6921 O   0  0  0  1  0  0
   16.6711    3.8673   -9.4529 O   0  0  0  1  0  0
   13.5054    5.7418   -9.7520 O   0  0  0  1  0  0
   17.9944   -0.6169   -8.5610 O   0  0  0  1  0  0
   17.5212    5.8388  -12.4719 O   0  0  0  1  0  0
   15.8564   -0.8274   -9.1948 O   0  0  0  1  0  0
   13.2346    1.0931  -11.4397 O   0  0  0  1  0  0
   11.7470    5.0939  -11.7592 O   0  0  0  1  0  0
    7.7051    3.4425  -13.4226 O   0  0  0  1  0  0
   11.3255   -2.8509  -14.2755 O   0  0  0  1  0  0
   18.4501    1.2082  -10.7523 C   0  0  2  1  0  0
   18.6343    1.7353  -12.1936 C   0  0  2  1  0  0
   14.7442    3.1196  -10.6364 C   0  0  1  1  0  0
   15.3479    3.4892  -12.0046 C   0  0  2  1  0  0
   15.2742    4.0629   -9.5730 C   0  0  2  1  0  0
   17.2739    2.1943  -12.7579 C   0  0  2  1  0  0
   14.8931    5.5128   -9.9130 C   0  0  1  1  0  0
   15.3279    5.8821  -11.3431 C   0  0  1  1  0  0
   19.5799    0.3171  -10.2365 C   0  0  0  1  0  0
   17.1738    0.4333  -10.6186 C   0  0  0  1  0  0
   19.3022   -0.0606   -8.7694 C   0  0  0  1  0  0
   19.2344    0.6940  -13.1058 C   0  0  0  1  0  0
   16.7638    6.4264  -11.4282 C   0  0  0  1  0  0
   16.2931    0.3546  -11.6361 C   0  0  0  1  0  0
   16.9781   -0.3738   -9.3872 C   0  0  0  1  0  0
   20.4195    0.8211  -13.7276 C   0  0  0  1  0  0
   12.7283    2.3670  -11.4797 C   0  0  0  1  0  0
   11.6912    2.7610  -12.2499 C   0  0  0  1  0  0
   11.0516    1.8816  -13.2426 C   0  0  0  1  0  0
   11.1179    4.1349  -12.1060 C   0  0  0  1  0  0
    9.8002    2.1535  -13.6693 C   0  0  0  1  0  0
   11.7767    0.7436  -13.8235 C   0  0  0  1  0  0
    9.6903    4.2895  -12.4742 C   0  0  0  1  0  0
    9.0484    3.3265  -13.1690 C   0  0  0  1  0  0
   11.3105   -0.5514  -13.6445 C   0  0  0  1  0  0
   12.9726    0.9481  -14.5068 C   0  0  0  1  0  0
   11.9265   -1.6110  -14.2905 C   0  0  0  1  0  0
   13.6469   -0.1294  -15.0697 C   0  0  0  1  0  0
   13.1103   -1.4080  -14.9834 C   0  0  0  1  0  0
   17.0789    4.0016  -10.3015 H   0  0
   13.0172    5.2863  -10.4433 H   0  0
   17.9159    5.0165  -12.1710 H   0  0
   12.7100    0.4681  -11.9174 H   0  0
    7.3286    2.6876  -13.8510 H   0  0
   10.4929   -2.7818  -14.7371 H   0  0
   18.3960    2.0571  -10.0782 H   0  0
   19.3107    2.5884  -12.1653 H   0  0
   14.9990    2.1066  -10.3349 H   0  0
   14.8862    2.8997  -12.7958 H   0  0
   14.8305    3.7941   -8.6144 H   0  0
   17.3997    2.5519  -13.7807 H   0  0
   15.3773    6.1815   -9.2022 H   0  0
   14.7037    6.7255  -11.6428 H   0  0
   20.5382    0.8316  -10.3138 H   0  0
   19.6589   -0.5937  -10.8314 H   0  0
   20.0356   -0.8002   -8.4490 H   0  0
   19.4105    0.8005   -8.1080 H   0  0
   18.6471   -0.1937  -13.2562 H   0  0
   16.7089    7.4855  -11.6622 H   0  0
   17.2839    6.4124  -10.4645 H   0  0
   15.4464   -0.3055  -11.5810 H   0  0
   21.0317    1.6939  -13.5965 H   0  0
   20.7965    0.0516  -14.3756 H   0  0
    9.3430    1.5305  -14.4122 H   0  0
    9.1749    5.1796  -12.1764 H   0  0
   10.4540   -0.7398  -13.0147 H   0  0
   13.3802    1.9435  -14.6189 H   0  0
   14.5723    0.0307  -15.6041 H   0  0
   13.6029   -2.2412  -15.4656 H   0  0
  1 17  1  0
  1 19  1  0
  2 17  1  0
  2 21  1  0
  3 19  1  0
  3 27  1  0
  4 16  1  0
  4 30  1  0
  5 18  1  0
  6 20  1  0
  7 24  1  0
  7 28  1  0
  8 26  1  0
  9 28  2  0
 10 30  1  0
 11 33  2  0
 12 37  1  0
 13 40  1  0
 14 15  1  0
 14 22  1  0
 14 23  1  0
 15 19  1  0
 15 25  1  0
 16 17  1  0
 16 18  1  0
 18 20  1  0
 20 21  1  0
 21 26  1  0
 22 24  1  0
 23 27  2  0
 23 28  1  0
 25 29  2  0
 30 31  2  0
 31 32  1  0
 31 33  1  0
 32 34  2  0
 32 35  1  0
 33 36  1  0
 34 37  1  0
 35 38  2  0
 35 39  1  0
 36 37  2  0
 38 40  1  0
 39 41  2  0
 40 42  2  0
 41 42  1  0
  5 43  1  0
  6 44  1  0
  8 45  1  0
 10 46  1  0
 12 47  1  0
 13 48  1  0
 14 49  1  0
 15 50  1  0
 16 51  1  0
 17 52  1  0
 18 53  1  0
 19 54  1  0
 20 55  1  0
 21 56  1  0
 22 57  1  0
 22 58  1  0
 24 59  1  0
 24 60  1  0
 25 61  1  0
 26 62  1  0
 26 63  1  0
 27 64  1  0
 29 65  1  0
 29 66  1  0
 34 67  1  0
 36 68  1  0
 38 69  1  0
 39 70  1  0
 41 71  1  0
 42 72  1  0
M  END
> <Name>
115149

> <Binding Energy>
-109.1018

> <Ligand Energy>
93.1198

> <Protein Energy>
-7801.1566

> <Complex Energy>
-7817.1386

> <Complex Entropy>
-31.4939

> <Protein Entropy>
-31.4717

> <Ligand Entropy>
-20.9935

> <Entropic Energy>
20.9712

> <AbsoluteEnergy>
82.079

> <ConfNumber>
70

> <Ionization pH>
7.5

> <IonizationIndex>
1

> <MOL_NUMBER>
54

> <NumberOfIonizations>
1

> <NumberOfStereoisomers>
1

> <NumberOfTautomers>
3

> <PUBCHEM_ATOM_DEF_STEREO_COUNT>
8

> <PUBCHEM_ATOM_UDEF_STEREO_COUNT>
0

> <PUBCHEM_BOND_DEF_STEREO_COUNT>
0

> <PUBCHEM_BOND_UDEF_STEREO_COUNT>
0

> <PUBCHEM_CACTVS_TAUTO_COUNT>
36

> <PUBCHEM_COMPONENT_COUNT>
1

> <PUBCHEM_COMPOUND_CID>
115149

> <PUBCHEM_CONFORMER_DIVERSEORDER>
1
72
19
36
24
55
51
30
62
32
44
7
73
21
65
23
59
71
27
25
28
38
35
67
61
33
52
64
29
66
6
58
54
69
49
48
45
31
57
43
68
50
26
34
53
47
14
18
60
63
39
70
42
20
40
41
17
11
9
3
12
46
16
22
13
37
8
10
56
4
15
5
2

> <PUBCHEM_CONFORMER_ID>
0001C1CD00000001

> <PUBCHEM_CONFORMER_RMSD>
1.2

> <PUBCHEM_COORDINATE_TYPE>
2
5
10

> <PUBCHEM_EFFECTIVE_ROTOR_COUNT>
10.4

> <PUBCHEM_FEATURE_SELFOVERLAP>
101.626

> <PUBCHEM_HEAVY_ATOM_COUNT>
42

> <PUBCHEM_ISOTOPIC_ATOM_COUNT>
0

> <PUBCHEM_MMFF94_ENERGY>
126.1405

> <PUBCHEM_MMFF94_PARTIAL_CHARGES>
55
1 -0.56
10 -0.57
11 -0.53
12 -0.53
13 -0.53
14 0.14
15 0.14
16 0.28
17 0.56
18 0.28
19 0.56
2 -0.56
20 0.28
21 0.28
23 -0.12
24 0.28
25 -0.29
26 0.28
27 -0.07
28 0.71
29 -0.3
3 -0.36
30 0.63
31 0.09
33 0.08
34 -0.15
36 -0.15
37 0.08
38 -0.15
39 -0.15
4 -0.43
40 0.08
41 -0.15
42 -0.15
5 -0.68
55 0.15
58 0.15
59 0.4
6 -0.68
60 0.4
61 0.15
62 0.15
63 0.4
64 0.15
65 0.15
66 0.15
67 0.15
68 0.45
69 0.15
7 -0.43
70 0.45
71 0.15
72 0.45
8 -0.68
9 -0.57

> <PUBCHEM_PHARMACOPHORE_FEATURES>
20
1 1 acceptor
1 10 acceptor
1 11 donor
1 12 donor
1 13 donor
1 2 acceptor
1 29 hydrophobe
1 3 acceptor
1 5 acceptor
1 5 donor
1 6 acceptor
1 6 donor
1 8 acceptor
1 8 donor
1 9 acceptor
6 2 16 17 18 20 21 rings
6 3 14 15 19 23 27 rings
6 31 32 33 34 36 37 rings
6 35 38 39 40 41 42 rings
6 7 14 22 23 24 28 rings

> <PUBCHEM_SHAPE_FINGERPRINT>
10190108 129 18124345755497908961
10439779 11 18267289002070585298
10483366 6 18339373955050565046
11135926 11 18265610992344337700
11828532 37 17973446800033385823
12156800 1 16759460175744143253
12422481 6 17825363238479993432
13642711 20 18340486664796311806
140371 6 18055366979239514520
14394314 77 18411139100286303168
144659 178 16753535985951178030
14725015 67 18340761650029990565
14790565 3 18411699885364340234
15297060 5 18271524196185576712
15320467 1 18338233893955812091
15351339 4 18410571760764963922
17627616 140 18264773147092833819
17909252 39 17977669706388789960
19311894 1 18412544322947219660
20764821 26 18193255438944133999
20775438 99 17398068722764217820
463206 1 17835807400574435184
5776283 40 18047485696966159572
6371009 1 18265881630954517023

> <PUBCHEM_SHAPE_MULTIPOLES>
788.04
10.82
8.05
1.48
2.91
6.48
-0.26
-1.88
-2.08
-0.35
-0.34
-0.65
-0.39
-0.32

> <PUBCHEM_SHAPE_SELFOVERLAP>
1714.992

> <PUBCHEM_SHAPE_VOLUME>
421.4

> <RelativeEnergy>
15.1653

> <StereoisomerIndex>
1

> <TautomerIndex>
2

> <POSE_NUMBER>
3

> <LibDockScore>
110.0053

> <HotSpots>
11.41,-3.13,-14.46,P,20,13
16.61,6.47,-11.46,A,30,26
9.21,3.67,-12.86,A,26,36

> <-In-Situ Starting Energy>
-613.612904

> <-In-Situ Final Energy>
-10.7805101

> <In-Situ Gradient>
0.0009515902566

> <Favorable Total>
12

> <Unfavorable Total>
0

> <Charge Total>
0

> <Hydrophobic Total>
5

> <HydrogenBond Total>
7

> <Other Total>
0

> <Favorable A:LYS6>
0

> <Favorable A:ARG55>
0

> <Favorable A:LEU58>
0

> <Favorable A:LEU61>
0

> <Favorable A:ILE62>
0

> <Favorable A:GLY64>
0

> <Favorable A:SER65>
1

> <Favorable A:TRP66>
0

> <Favorable A:SER69>
0

> <Favorable A:VAL70>
0

> <Favorable A:PRO73>
0

> <Favorable A:ALA74>
0

> <Favorable A:PHE76>
1

> <Favorable A:ALA77>
0

> <Favorable A:THR78>
0

> <Favorable A:GLU79>
0

> <Favorable A:PHE82>
0

> <Favorable A:ARG83>
0

> <Favorable A:LEU85>
1

> <Favorable A:THR86>
1

> <Favorable A:TRP89>
0

> <Favorable A:THR90>
0

> <Favorable A:ASN93>
0

> <Favorable A:HIS94>
0

> <Favorable A:SER96>
0

> <Favorable A:VAL97>
0

> <Favorable A:TRP98>
0

> <Favorable A:PHE140>
0

> <Favorable A:LEU141>
0

> <Favorable A:ASN144>
0

> <Favorable A:ILE148>
0

> <Favorable A:ILE150>
0

> <Favorable A:HIS151>
0

> <Favorable A:ILE152>
0

> <Favorable A:ALA154>
0

> <Favorable A:SER155>
0

> <Favorable A:ILE156>
0

> <Favorable A:GLY158>
0

> <Favorable A:TYR159>
0

> <Favorable A:ARG160>
0

> <Favorable A:ARG161>
0

> <Favorable A:ASN162>
0

> <Favorable A:LYS163>
0

> <Favorable A:SER167>
0

> <Favorable A:ASP168>
0

> <Favorable A:SER169>
0

> <Favorable A:ASN171>
0

> <Favorable A:PHE172>
1

> <Favorable A:THR173>
0

> <Favorable A:ARG174>
0

> <Favorable A:PHE175>
0

> <Favorable A:SER176>
2

> <Favorable A:SER177>
0

> <Favorable A:LEU178>
0

> <Favorable A:ILE179>
0

> <Favorable A:VAL180>
0

> <Favorable A:LEU181>
0

> <Favorable A:SER183>
0

> <Favorable A:THR184>
0

> <Favorable A:PHE186>
0

> <Favorable A:ILE187>
0

> <Favorable A:PHE188>
0

> <Favorable A:ILE189>
0

> <Favorable A:PRO190>
0

> <Favorable A:PHE191>
0

> <Favorable A:TYR240>
0

> <Favorable A:PHE243>
0

> <Favorable A:SER244>
0

> <Favorable A:PHE247>
0

> <Favorable A:PHE248>
0

> <Favorable A:VAL251>
0

> <Favorable A:TRP252>
0

> <Favorable A:SER254>
2

> <Favorable A:GLU255>
0

> <Favorable A:ARG256>
0

> <Favorable A:LEU257>
0

> <Favorable A:GLU258>
0

> <Favorable A:GLU259>
0

> <Favorable A:LEU261>
0

> <Favorable A:ILE262>
2

> <Favorable A:ILE263>
0

> <Favorable A:SER265>
0

> <Favorable A:GLN266>
1

> <Favorable A:MET268>
0

> <Favorable A:GLY269>
0

> <Favorable A:TYR272>
0

> <Favorable A:PRO273>
0

> <Unfavorable A:ARG55>
0

> <Unfavorable A:PRO73>
0

> <Unfavorable A:PHE76>
0

> <Unfavorable A:GLU79>
0

> <Unfavorable A:ARG83>
0

> <Unfavorable A:THR86>
0

> <Unfavorable A:TRP89>
0

> <Unfavorable A:THR90>
0

> <Unfavorable A:ASN93>
0

> <Unfavorable A:TRP98>
0

> <Unfavorable A:ASN144>
0

> <Unfavorable A:SER155>
0

> <Unfavorable A:GLY158>
0

> <Unfavorable A:TYR159>
0

> <Unfavorable A:ASN162>
0

> <Unfavorable A:ASP168>
0

> <Unfavorable A:ASN171>
0

> <Unfavorable A:THR173>
0

> <Unfavorable A:ARG174>
0

> <Unfavorable A:SER183>
0

> <Unfavorable A:THR184>
0

> <Unfavorable A:PHE186>
0

> <Unfavorable A:SER244>
0

> <Unfavorable A:SER254>
0

> <Unfavorable A:GLU255>
0

> <Unfavorable A:SER265>
0

> <Unfavorable A:GLN266>
0

> <Unfavorable A:GLY269>
0

> <Charge A:ARG55>
0

> <Charge A:PHE76>
0

> <Charge A:GLU79>
0

> <Charge A:PHE82>
0

> <Charge A:ARG83>
0

> <Charge A:TRP89>
0

> <Charge A:HIS94>
0

> <Charge A:TRP98>
0

> <Charge A:TYR159>
0

> <Charge A:ARG161>
0

> <Charge A:LYS163>
0

> <Charge A:ASP168>
0

> <Charge A:PHE172>
0

> <Charge A:ARG174>
0

> <Charge A:PHE175>
0

> <Charge A:PHE188>
0

> <Charge A:PHE247>
0

> <Charge A:PHE248>
0

> <Hydrophobic A:LEU58>
0

> <Hydrophobic A:LEU61>
0

> <Hydrophobic A:ILE62>
0

> <Hydrophobic A:TRP66>
0

> <Hydrophobic A:VAL70>
0

> <Hydrophobic A:PRO73>
0

> <Hydrophobic A:ALA74>
0

> <Hydrophobic A:PHE76>
1

> <Hydrophobic A:ALA77>
0

> <Hydrophobic A:THR78>
0

> <Hydrophobic A:PHE82>
0

> <Hydrophobic A:ARG83>
0

> <Hydrophobic A:LEU85>
1

> <Hydrophobic A:TRP89>
0

> <Hydrophobic A:THR90>
0

> <Hydrophobic A:ASN93>
0

> <Hydrophobic A:HIS94>
0

> <Hydrophobic A:VAL97>
0

> <Hydrophobic A:TRP98>
0

> <Hydrophobic A:PHE140>
0

> <Hydrophobic A:LEU141>
0

> <Hydrophobic A:ILE148>
0

> <Hydrophobic A:ILE150>
0

> <Hydrophobic A:HIS151>
0

> <Hydrophobic A:ILE152>
0

> <Hydrophobic A:ALA154>
0

> <Hydrophobic A:SER155>
0

> <Hydrophobic A:ILE156>
0

> <Hydrophobic A:GLY158>
0

> <Hydrophobic A:TYR159>
0

> <Hydrophobic A:ARG160>
0

> <Hydrophobic A:ARG161>
0

> <Hydrophobic A:ASP168>
0

> <Hydrophobic A:ASN171>
0

> <Hydrophobic A:PHE172>
1

> <Hydrophobic A:ARG174>
0

> <Hydrophobic A:PHE175>
0

> <Hydrophobic A:LEU178>
0

> <Hydrophobic A:ILE179>
0

> <Hydrophobic A:VAL180>
0

> <Hydrophobic A:LEU181>
0

> <Hydrophobic A:PHE186>
0

> <Hydrophobic A:ILE187>
0

> <Hydrophobic A:PHE188>
0

> <Hydrophobic A:ILE189>
0

> <Hydrophobic A:PRO190>
0

> <Hydrophobic A:PHE191>
0

> <Hydrophobic A:TYR240>
0

> <Hydrophobic A:PHE243>
0

> <Hydrophobic A:PHE247>
0

> <Hydrophobic A:PHE248>
0

> <Hydrophobic A:VAL251>
0

> <Hydrophobic A:TRP252>
0

> <Hydrophobic A:SER254>
0

> <Hydrophobic A:LEU261>
0

> <Hydrophobic A:ILE262>
2

> <Hydrophobic A:ILE263>
0

> <Hydrophobic A:TYR272>
0

> <Hydrophobic A:PRO273>
0

> <HydrogenBond A:LYS6>
0

> <HydrogenBond A:ARG55>
0

> <HydrogenBond A:GLY64>
0

> <HydrogenBond A:SER65>
1

> <HydrogenBond A:TRP66>
0

> <HydrogenBond A:SER69>
0

> <HydrogenBond A:PRO73>
0

> <HydrogenBond A:ALA74>
0

> <HydrogenBond A:PHE76>
0

> <HydrogenBond A:ALA77>
0

> <HydrogenBond A:THR78>
0

> <HydrogenBond A:GLU79>
0

> <HydrogenBond A:PHE82>
0

> <HydrogenBond A:ARG83>
0

> <HydrogenBond A:LEU85>
0

> <HydrogenBond A:THR86>
1

> <HydrogenBond A:TRP89>
0

> <HydrogenBond A:THR90>
0

> <HydrogenBond A:ASN93>
0

> <HydrogenBond A:HIS94>
0

> <HydrogenBond A:SER96>
0

> <HydrogenBond A:TRP98>
0

> <HydrogenBond A:ASN144>
0

> <HydrogenBond A:HIS151>
0

> <HydrogenBond A:ILE152>
0

> <HydrogenBond A:ALA154>
0

> <HydrogenBond A:SER155>
0

> <HydrogenBond A:ILE156>
0

> <HydrogenBond A:GLY158>
0

> <HydrogenBond A:TYR159>
0

> <HydrogenBond A:ASN162>
0

> <HydrogenBond A:LYS163>
0

> <HydrogenBond A:SER167>
0

> <HydrogenBond A:ASP168>
0

> <HydrogenBond A:SER169>
0

> <HydrogenBond A:ASN171>
0

> <HydrogenBond A:PHE172>
0

> <HydrogenBond A:THR173>
0

> <HydrogenBond A:ARG174>
0

> <HydrogenBond A:PHE175>
0

> <HydrogenBond A:SER176>
2

> <HydrogenBond A:SER177>
0

> <HydrogenBond A:ILE179>
0

> <HydrogenBond A:VAL180>
0

> <HydrogenBond A:SER183>
0

> <HydrogenBond A:THR184>
0

> <HydrogenBond A:PHE186>
0

> <HydrogenBond A:ILE187>
0

> <HydrogenBond A:PRO190>
0

> <HydrogenBond A:TYR240>
0

> <HydrogenBond A:PHE243>
0

> <HydrogenBond A:SER244>
0

> <HydrogenBond A:PHE247>
0

> <HydrogenBond A:VAL251>
0

> <HydrogenBond A:SER254>
2

> <HydrogenBond A:GLU255>
0

> <HydrogenBond A:ARG256>
0

> <HydrogenBond A:LEU257>
0

> <HydrogenBond A:GLU258>
0

> <HydrogenBond A:GLU259>
0

> <HydrogenBond A:ILE262>
0

> <HydrogenBond A:SER265>
0

> <HydrogenBond A:GLN266>
1

> <HydrogenBond A:MET268>
0

> <HydrogenBond A:GLY269>
0

> <HydrogenBond A:PRO273>
0

> <Other A:SER69>
0

> <Other A:TRP89>
0

> <Other A:TYR159>
0

> <Other A:PHE172>
0

> <Other A:SER176>
0

> <Other A:SER265>
0

$$$$
146798
  SciTegic09122300493D

 66 71  0  0  0  0            999 V2000
   16.7181    0.4319  -13.0531 O   0  0  0  1  0  0
   13.5100    1.6266  -10.5009 O   0  0  0  1  0  0
   17.6271    3.5977  -12.6821 O   0  0  0  1  0  0
   13.4494    0.9686   -7.7852 O   0  0  0  1  0  0
   16.1909    5.3178  -11.4808 O   0  5  0  1  0  0
   13.3014    5.6111   -7.7879 O   0  0  0  1  0  0
   12.7698    3.0528  -13.6266 O   0  5  0  1  0  0
   12.8944   -1.2801  -15.2503 O   0  0  0  1  0  0
   14.3511   -1.3047   -8.8328 O   0  0  0  1  0  0
   16.1548   -1.1631   -6.9124 O   0  0  0  1  0  0
   10.2987    3.6399  -13.5725 O   0  0  0  1  0  0
    8.1535    2.0996  -13.5511 O   0  0  0  1  0  0
   15.3682    2.9491  -12.3586 C   0  0  2  1  0  0
   16.8283    2.6765  -11.9586 C   0  0  1  1  0  0
   14.7300    3.5938  -11.1542 C   0  0  0  1  0  0
   17.2533    1.1950  -11.9871 C   0  0  1  1  0  0
   14.6793    1.8291  -13.1022 C   0  0  0  1  0  0
   13.8679    2.9573  -10.2587 C   0  0  0  1  0  0
   13.3607    3.6620   -9.1587 C   0  0  0  1  0  0
   12.3079    1.5275   -8.4092 C   0  0  2  1  0  0
   12.3283    1.1413   -9.8903 C   0  0  1  1  0  0
   12.3195    3.0464   -8.2610 C   0  0  0  1  0  0
   15.3903    0.6614  -13.4038 C   0  0  0  1  0  0
   15.2392    4.8518  -10.8387 C   0  0  0  1  0  0
   16.9860    0.5203  -10.6471 C   0  0  0  1  0  0
   13.4012    1.9907  -13.6619 C   0  0  0  1  0  0
   13.8079    4.9527   -8.9018 C   0  0  0  1  0  0
   14.7785    5.5190   -9.7216 C   0  0  0  1  0  0
   11.1008    1.5224  -10.6872 C   0  0  0  1  0  0
   14.7890   -0.3697  -14.1107 C   0  0  0  1  0  0
   12.7975    0.9253  -14.3038 C   0  0  0  1  0  0
   15.8086   -0.1784  -10.3825 C   0  0  0  1  0  0
   13.4829   -0.2515  -14.5410 C   0  0  0  1  0  0
   17.9025    0.6670   -9.6032 C   0  0  0  1  0  0
   11.0763    2.6421  -11.5147 C   0  0  0  1  0  0
   10.0193    0.6517  -10.7363 C   0  0  0  1  0  0
   15.5462   -0.6801   -9.1208 C   0  0  0  1  0  0
   17.6497    0.1334   -8.3417 C   0  0  0  1  0  0
   16.4703   -0.5589   -8.1108 C   0  0  0  1  0  0
   10.1315    2.7697  -12.5134 C   0  0  0  1  0  0
    8.9848    0.8757  -11.6340 C   0  0  0  1  0  0
    9.0664    1.9088  -12.5461 C   0  0  0  1  0  0
   17.3509    4.4959  -12.3379 H   0  0
   14.2139    1.3406   -8.2206 H   0  0
   13.5383    6.5281   -7.7806 H   0  0
   12.5978   -0.9379  -16.0857 H   0  0
   13.9014   -0.8218   -8.1359 H   0  0
   15.3341   -1.6388   -7.0570 H   0  0
   11.2677    3.5861  -13.7690 H   0  0
    8.5780    2.7886  -14.0607 H   0  0
   15.3217    3.7280  -13.1163 H   0  0
   16.9795    2.9019  -10.8906 H   0  0
   18.3362    1.1877  -12.1130 H   0  0
   11.4286    1.1087   -7.9178 H   0  0
   12.3774    0.0540   -9.9496 H   0  0
   11.3486    3.4603   -8.5351 H   0  0
   12.5014    3.3266   -7.2230 H   0  0
   15.2549    6.4627   -9.5359 H   0  0
   15.3463   -1.2683  -14.3253 H   0  0
   11.7814    1.0621  -14.6268 H   0  0
   15.0415   -0.3192  -11.1222 H   0  0
   18.8129    1.2266   -9.7670 H   0  0
   11.8690    3.3657  -11.5325 H   0  0
    9.9854   -0.2115  -10.0884 H   0  0
   18.3639    0.2742   -7.5462 H   0  0
    8.1223    0.2379  -11.6346 H   0  0
  1 16  1  0
  1 23  1  0
  2 18  1  0
  2 21  1  0
  3 14  1  0
  4 20  1  0
  5 24  1  0
  6 27  1  0
  7 26  1  0
  8 33  1  0
  9 37  1  0
 10 39  1  0
 11 40  1  0
 12 42  1  0
 13 14  1  0
 13 15  1  0
 13 17  1  0
 14 16  1  0
 15 18  2  0
 15 24  1  0
 16 25  1  0
 17 23  2  0
 17 26  1  0
 18 19  1  0
 19 22  1  0
 19 27  2  0
 20 21  1  0
 20 22  1  0
 21 29  1  0
 23 30  1  0
 24 28  2  0
 25 32  2  0
 25 34  1  0
 26 31  2  0
 27 28  1  0
 29 35  2  0
 29 36  1  0
 30 33  2  0
 31 33  1  0
 32 37  1  0
 34 38  2  0
 35 40  1  0
 36 41  2  0
 37 39  2  0
 38 39  1  0
 40 42  2  0
 41 42  1  0
  3 43  1  0
  4 44  1  0
  6 45  1  0
  8 46  1  0
  9 47  1  0
 10 48  1  0
 11 49  1  0
 12 50  1  0
 13 51  1  0
 14 52  1  0
 16 53  1  0
 20 54  1  0
 21 55  1  0
 22 56  1  0
 22 57  1  0
 28 58  1  0
 30 59  1  0
 31 60  1  0
 32 61  1  0
 34 62  1  0
 35 63  1  0
 36 64  1  0
 38 65  1  0
 41 66  1  0
M  CHG  2   5  -1   7  -1
M  END
> <Name>
146798

> <Binding Energy>
-30.9112

> <Ligand Energy>
-4.2633

> <Protein Energy>
-7801.1566

> <Complex Energy>
-7836.3312

> <Complex Entropy>
-31.4926

> <Protein Entropy>
-31.4717

> <Ligand Entropy>
-20.8114

> <Entropic Energy>
20.7905

> <AbsoluteEnergy>
78.0821

> <ConfNumber>
93

> <Ionization pH>
6.79_DDPPPPPP

> <IonizationIndex>
2

> <MOL_NUMBER>
61

> <NumberOfIonizations>
2

> <NumberOfStereoisomers>
1

> <NumberOfTautomers>
1

> <PUBCHEM_ATOM_DEF_STEREO_COUNT>
5

> <PUBCHEM_ATOM_UDEF_STEREO_COUNT>
0

> <PUBCHEM_BOND_DEF_STEREO_COUNT>
0

> <PUBCHEM_BOND_UDEF_STEREO_COUNT>
0

> <PUBCHEM_CACTVS_TAUTO_COUNT>
986

> <PUBCHEM_COMPONENT_COUNT>
1

> <PUBCHEM_COMPOUND_CID>
146798

> <PUBCHEM_CONFORMER_DIVERSEORDER>
1
16
20
31
41
38
22
3
36
29
10
28
24
2
39
21
33
32
9
37
4
19
30
34
11
26
25
40
12
27
18
35
7
23
17
15
6
8
13
5
14

> <PUBCHEM_CONFORMER_ID>
00023D6E00000001

> <PUBCHEM_CONFORMER_RMSD>
1

> <PUBCHEM_COORDINATE_TYPE>
2
5
10

> <PUBCHEM_EFFECTIVE_ROTOR_COUNT>
4.6

> <PUBCHEM_FEATURE_SELFOVERLAP>
101.58

> <PUBCHEM_HEAVY_ATOM_COUNT>
42

> <PUBCHEM_ISOTOPIC_ATOM_COUNT>
0

> <PUBCHEM_MMFF94_ENERGY>
134.2918

> <PUBCHEM_MMFF94_PARTIAL_CHARGES>
61
1 -0.36
10 -0.53
11 -0.53
12 -0.53
13 0.29
14 0.28
15 -0.14
16 0.42
17 -0.14
18 0.08
19 -0.14
2 -0.36
20 0.28
21 0.42
22 0.14
23 0.08
24 0.08
25 -0.14
26 0.08
27 0.08
28 -0.15
29 -0.14
3 -0.68
30 -0.15
31 -0.15
32 -0.15
33 0.08
34 -0.15
35 -0.15
36 -0.15
37 0.08
38 -0.15
39 0.08
4 -0.68
40 0.08
41 -0.15
42 0.08
5 -0.53
50 0.15
51 0.4
52 0.15
53 0.15
54 0.15
55 0.15
56 0.4
57 0.15
58 0.15
59 0.45
6 -0.53
60 0.45
61 0.45
62 0.15
63 0.15
64 0.45
65 0.45
66 0.45
67 0.45
68 0.45
7 -0.53
8 -0.53
9 -0.53

> <PUBCHEM_PHARMACOPHORE_FEATURES>
20
1 1 acceptor
1 10 donor
1 11 donor
1 12 donor
1 2 acceptor
1 3 acceptor
1 3 donor
1 4 acceptor
1 4 donor
1 5 donor
1 6 donor
1 7 donor
1 8 donor
1 9 donor
6 1 13 14 16 17 23 rings
6 15 18 19 24 27 28 rings
6 17 23 26 30 31 33 rings
6 2 18 19 20 21 22 rings
6 25 32 34 37 38 39 rings
6 29 35 36 40 41 42 rings

> <PUBCHEM_SHAPE_FINGERPRINT>
10258939 38 17549536766449829000
11093857 51 18127679432135877663
11582403 64 17967822642941980012
12156800 1 18268695272667950002
12788726 201 17905588249454542967
13636023 20 17696473983740216236
13726171 33 17981038927881292569
14068700 675 17125648202965063062
15219462 58 17463138186569289840
15324884 4 17685828701497157644
15444296 8 17119690374724614994
15968369 26 17986927748860745573
16067690 210 17759509363322737955
17909252 39 16773791515601624887
17974551 9 15600799675738337855
20587220 17 16082464745354097535
20764821 26 18268126735679605079
21304303 282 17606118630914993048
23559900 14 16844995837378503681
238 59 18124620611723774412
238918 7 16267947009008303271
24941158 1 15937237894776774175
27425 322 17531826751745354021
3493558 16 14645263765565645636
469060 322 17619950521789471590
5081480 168 13049060421916791053
563151 248 18115286944206506720
57527452 28 17769371622216459402
6376802 137 16342304541428656070
6823239 73 16055455164655023661

> <PUBCHEM_SHAPE_MULTIPOLES>
793.91
8.43
5.89
4.16
9.56
7.22
4.52
-9.28
-7.54
2.42
-0.56
-3.6
1.85
0.29

> <PUBCHEM_SHAPE_SELFOVERLAP>
1787.338

> <PUBCHEM_SHAPE_VOLUME>
412.9

> <RelativeEnergy>
18.1084

> <StereoisomerIndex>
1

> <TautomerIndex>
1

> <POSE_NUMBER>
1

> <LibDockScore>
118.5265

> <HotSpots>
16.41,-1.33,-4.66,P,61,10
11.01,5.47,-15.65,P,18,11
9.01,2.67,-14.05,A,21,41

> <-In-Situ Starting Energy>
-3540.82116

> <-In-Situ Final Energy>
87.2089407

> <In-Situ Gradient>
0.06033883395

> <Favorable Total>
8

> <Unfavorable Total>
0

> <Charge Total>
0

> <Hydrophobic Total>
4

> <HydrogenBond Total>
4

> <Other Total>
0

> <Favorable A:LYS6>
0

> <Favorable A:ARG55>
0

> <Favorable A:LEU58>
0

> <Favorable A:LEU61>
0

> <Favorable A:ILE62>
0

> <Favorable A:GLY64>
0

> <Favorable A:SER65>
1

> <Favorable A:TRP66>
0

> <Favorable A:SER69>
0

> <Favorable A:VAL70>
0

> <Favorable A:PRO73>
0

> <Favorable A:ALA74>
0

> <Favorable A:PHE76>
2

> <Favorable A:ALA77>
0

> <Favorable A:THR78>
0

> <Favorable A:GLU79>
0

> <Favorable A:PHE82>
0

> <Favorable A:ARG83>
0

> <Favorable A:LEU85>
0

> <Favorable A:THR86>
0

> <Favorable A:TRP89>
1

> <Favorable A:THR90>
0

> <Favorable A:ASN93>
0

> <Favorable A:HIS94>
0

> <Favorable A:SER96>
0

> <Favorable A:VAL97>
0

> <Favorable A:TRP98>
0

> <Favorable A:PHE140>
0

> <Favorable A:LEU141>
0

> <Favorable A:ASN144>
0

> <Favorable A:ILE148>
0

> <Favorable A:ILE150>
0

> <Favorable A:HIS151>
0

> <Favorable A:ILE152>
0

> <Favorable A:ALA154>
0

> <Favorable A:SER155>
0

> <Favorable A:ILE156>
0

> <Favorable A:GLY158>
0

> <Favorable A:TYR159>
0

> <Favorable A:ARG160>
0

> <Favorable A:ARG161>
0

> <Favorable A:ASN162>
0

> <Favorable A:LYS163>
0

> <Favorable A:SER167>
0

> <Favorable A:ASP168>
0

> <Favorable A:SER169>
0

> <Favorable A:ASN171>
0

> <Favorable A:PHE172>
0

> <Favorable A:THR173>
0

> <Favorable A:ARG174>
0

> <Favorable A:PHE175>
0

> <Favorable A:SER176>
1

> <Favorable A:SER177>
0

> <Favorable A:LEU178>
0

> <Favorable A:ILE179>
0

> <Favorable A:VAL180>
1

> <Favorable A:LEU181>
0

> <Favorable A:SER183>
0

> <Favorable A:THR184>
0

> <Favorable A:PHE186>
0

> <Favorable A:ILE187>
0

> <Favorable A:PHE188>
0

> <Favorable A:ILE189>
0

> <Favorable A:PRO190>
0

> <Favorable A:PHE191>
0

> <Favorable A:TYR240>
0

> <Favorable A:PHE243>
0

> <Favorable A:SER244>
0

> <Favorable A:PHE247>
0

> <Favorable A:PHE248>
0

> <Favorable A:VAL251>
0

> <Favorable A:TRP252>
0

> <Favorable A:SER254>
0

> <Favorable A:GLU255>
0

> <Favorable A:ARG256>
0

> <Favorable A:LEU257>
0

> <Favorable A:GLU258>
0

> <Favorable A:GLU259>
0

> <Favorable A:LEU261>
0

> <Favorable A:ILE262>
1

> <Favorable A:ILE263>
0

> <Favorable A:SER265>
1

> <Favorable A:GLN266>
0

> <Favorable A:MET268>
0

> <Favorable A:GLY269>
0

> <Favorable A:TYR272>
0

> <Favorable A:PRO273>
0

> <Unfavorable A:ARG55>
0

> <Unfavorable A:PRO73>
0

> <Unfavorable A:PHE76>
0

> <Unfavorable A:GLU79>
0

> <Unfavorable A:ARG83>
0

> <Unfavorable A:THR86>
0

> <Unfavorable A:TRP89>
0

> <Unfavorable A:THR90>
0

> <Unfavorable A:ASN93>
0

> <Unfavorable A:TRP98>
0

> <Unfavorable A:ASN144>
0

> <Unfavorable A:SER155>
0

> <Unfavorable A:GLY158>
0

> <Unfavorable A:TYR159>
0

> <Unfavorable A:ASN162>
0

> <Unfavorable A:ASP168>
0

> <Unfavorable A:ASN171>
0

> <Unfavorable A:THR173>
0

> <Unfavorable A:ARG174>
0

> <Unfavorable A:SER183>
0

> <Unfavorable A:THR184>
0

> <Unfavorable A:PHE186>
0

> <Unfavorable A:SER244>
0

> <Unfavorable A:SER254>
0

> <Unfavorable A:GLU255>
0

> <Unfavorable A:SER265>
0

> <Unfavorable A:GLN266>
0

> <Unfavorable A:GLY269>
0

> <Charge A:ARG55>
0

> <Charge A:PHE76>
0

> <Charge A:GLU79>
0

> <Charge A:PHE82>
0

> <Charge A:ARG83>
0

> <Charge A:TRP89>
0

> <Charge A:HIS94>
0

> <Charge A:TRP98>
0

> <Charge A:TYR159>
0

> <Charge A:ARG161>
0

> <Charge A:LYS163>
0

> <Charge A:ASP168>
0

> <Charge A:PHE172>
0

> <Charge A:ARG174>
0

> <Charge A:PHE175>
0

> <Charge A:PHE188>
0

> <Charge A:PHE247>
0

> <Charge A:PHE248>
0

> <Hydrophobic A:LEU58>
0

> <Hydrophobic A:LEU61>
0

> <Hydrophobic A:ILE62>
0

> <Hydrophobic A:TRP66>
0

> <Hydrophobic A:VAL70>
0

> <Hydrophobic A:PRO73>
0

> <Hydrophobic A:ALA74>
0

> <Hydrophobic A:PHE76>
1

> <Hydrophobic A:ALA77>
0

> <Hydrophobic A:THR78>
0

> <Hydrophobic A:PHE82>
0

> <Hydrophobic A:ARG83>
0

> <Hydrophobic A:LEU85>
0

> <Hydrophobic A:TRP89>
1

> <Hydrophobic A:THR90>
0

> <Hydrophobic A:ASN93>
0

> <Hydrophobic A:HIS94>
0

> <Hydrophobic A:VAL97>
0

> <Hydrophobic A:TRP98>
0

> <Hydrophobic A:PHE140>
0

> <Hydrophobic A:LEU141>
0

> <Hydrophobic A:ILE148>
0

> <Hydrophobic A:ILE150>
0

> <Hydrophobic A:HIS151>
0

> <Hydrophobic A:ILE152>
0

> <Hydrophobic A:ALA154>
0

> <Hydrophobic A:SER155>
0

> <Hydrophobic A:ILE156>
0

> <Hydrophobic A:GLY158>
0

> <Hydrophobic A:TYR159>
0

> <Hydrophobic A:ARG160>
0

> <Hydrophobic A:ARG161>
0

> <Hydrophobic A:ASP168>
0

> <Hydrophobic A:ASN171>
0

> <Hydrophobic A:PHE172>
0

> <Hydrophobic A:ARG174>
0

> <Hydrophobic A:PHE175>
0

> <Hydrophobic A:LEU178>
0

> <Hydrophobic A:ILE179>
0

> <Hydrophobic A:VAL180>
1

> <Hydrophobic A:LEU181>
0

> <Hydrophobic A:PHE186>
0

> <Hydrophobic A:ILE187>
0

> <Hydrophobic A:PHE188>
0

> <Hydrophobic A:ILE189>
0

> <Hydrophobic A:PRO190>
0

> <Hydrophobic A:PHE191>
0

> <Hydrophobic A:TYR240>
0

> <Hydrophobic A:PHE243>
0

> <Hydrophobic A:PHE247>
0

> <Hydrophobic A:PHE248>
0

> <Hydrophobic A:VAL251>
0

> <Hydrophobic A:TRP252>
0

> <Hydrophobic A:SER254>
0

> <Hydrophobic A:LEU261>
0

> <Hydrophobic A:ILE262>
1

> <Hydrophobic A:ILE263>
0

> <Hydrophobic A:TYR272>
0

> <Hydrophobic A:PRO273>
0

> <HydrogenBond A:LYS6>
0

> <HydrogenBond A:ARG55>
0

> <HydrogenBond A:GLY64>
0

> <HydrogenBond A:SER65>
1

> <HydrogenBond A:TRP66>
0

> <HydrogenBond A:SER69>
0

> <HydrogenBond A:PRO73>
0

> <HydrogenBond A:ALA74>
0

> <HydrogenBond A:PHE76>
1

> <HydrogenBond A:ALA77>
0

> <HydrogenBond A:THR78>
0

> <HydrogenBond A:GLU79>
0

> <HydrogenBond A:PHE82>
0

> <HydrogenBond A:ARG83>
0

> <HydrogenBond A:LEU85>
0

> <HydrogenBond A:THR86>
0

> <HydrogenBond A:TRP89>
0

> <HydrogenBond A:THR90>
0

> <HydrogenBond A:ASN93>
0

> <HydrogenBond A:HIS94>
0

> <HydrogenBond A:SER96>
0

> <HydrogenBond A:TRP98>
0

> <HydrogenBond A:ASN144>
0

> <HydrogenBond A:HIS151>
0

> <HydrogenBond A:ILE152>
0

> <HydrogenBond A:ALA154>
0

> <HydrogenBond A:SER155>
0

> <HydrogenBond A:ILE156>
0

> <HydrogenBond A:GLY158>
0

> <HydrogenBond A:TYR159>
0

> <HydrogenBond A:ASN162>
0

> <HydrogenBond A:LYS163>
0

> <HydrogenBond A:SER167>
0

> <HydrogenBond A:ASP168>
0

> <HydrogenBond A:SER169>
0

> <HydrogenBond A:ASN171>
0

> <HydrogenBond A:PHE172>
0

> <HydrogenBond A:THR173>
0

> <HydrogenBond A:ARG174>
0

> <HydrogenBond A:PHE175>
0

> <HydrogenBond A:SER176>
1

> <HydrogenBond A:SER177>
0

> <HydrogenBond A:ILE179>
0

> <HydrogenBond A:VAL180>
0

> <HydrogenBond A:SER183>
0

> <HydrogenBond A:THR184>
0

> <HydrogenBond A:PHE186>
0

> <HydrogenBond A:ILE187>
0

> <HydrogenBond A:PRO190>
0

> <HydrogenBond A:TYR240>
0

> <HydrogenBond A:PHE243>
0

> <HydrogenBond A:SER244>
0

> <HydrogenBond A:PHE247>
0

> <HydrogenBond A:VAL251>
0

> <HydrogenBond A:SER254>
0

> <HydrogenBond A:GLU255>
0

> <HydrogenBond A:ARG256>
0

> <HydrogenBond A:LEU257>
0

> <HydrogenBond A:GLU258>
0

> <HydrogenBond A:GLU259>
0

> <HydrogenBond A:ILE262>
0

> <HydrogenBond A:SER265>
1

> <HydrogenBond A:GLN266>
0

> <HydrogenBond A:MET268>
0

> <HydrogenBond A:GLY269>
0

> <HydrogenBond A:PRO273>
0

> <Other A:SER69>
0

> <Other A:TRP89>
0

> <Other A:TYR159>
0

> <Other A:PHE172>
0

> <Other A:SER176>
0

> <Other A:SER265>
0

$$$$
158573
  SciTegic09122300493D

 54 53  0  0  0  0            999 V2000
    8.3088    7.4246   -6.0820 O   0  0  0  1  0  0
    9.3482    9.9604   -3.1883 O   0  0  0  1  0  0
    6.9012   11.5322   -2.5205 O   0  0  0  1  0  0
   11.7814    4.8888   -5.8136 C   0  0  0  1  0  0
   10.9110    6.1488   -5.9543 C   0  0  0  1  0  0
   13.2160    5.1019   -6.3312 C   0  0  0  1  0  0
   13.3181    5.6349   -7.7740 C   0  0  0  1  0  0
    9.9405    6.4216   -4.7635 C   0  0  0  1  0  0
   13.0695    4.5737   -8.8532 C   0  0  0  1  0  0
    9.0269    7.6933   -4.9293 C   0  0  2  1  0  0
   13.1028    5.1803  -10.2666 C   0  0  0  1  0  0
    7.9075    8.0854   -3.9012 C   0  0  0  1  0  0
   13.3828    4.1504  -11.3715 C   0  0  0  1  0  0
   12.3340    3.0354  -11.4923 C   0  0  0  1  0  0
    8.0682    9.3652   -3.0476 C   0  0  2  1  0  0
   10.9795    3.5204  -12.0246 C   0  0  0  1  0  0
    6.9487   10.3850   -3.3600 C   0  0  0  1  0  0
   10.0259    2.3507  -12.2998 C   0  0  0  1  0  0
    8.6983    2.8122  -12.8317 C   0  0  0  1  0  0
    8.1753    2.4644  -14.0184 C   0  0  0  1  0  0
    7.7774    6.6501   -5.9415 H   0  0
   10.0179    9.4407   -2.7448 H   0  0
    6.8927   11.2499   -1.6104 H   0  0
   11.8401    4.5969   -4.7647 H   0  0
   11.3182    4.0511   -6.3354 H   0  0
   11.5593    6.9794   -6.1654 H   0  0
   10.4258    6.1367   -6.9093 H   0  0
   13.7032    5.8150   -5.6672 H   0  0
   13.7877    4.1779   -6.2370 H   0  0
   14.3213    6.0374   -7.9197 H   0  0
   12.6508    6.4814   -7.9304 H   0  0
   10.5745    6.5232   -3.8892 H   0  0
    9.3526    5.5239   -4.5674 H   0  0
   12.1091    4.0837   -8.6887 H   0  0
   13.8339    3.8010   -8.7644 H   0  0
    9.6243    8.5716   -5.1639 H   0  0
   13.8894    5.9352  -10.3113 H   0  0
   12.1705    5.7104  -10.4629 H   0  0
    6.9921    8.2789   -4.4646 H   0  0
    7.5907    7.2582   -3.2785 H   0  0
   14.3563    3.6961  -11.1826 H   0  0
   13.4771    4.6621  -12.3301 H   0  0
   12.2008    2.5370  -10.5317 H   0  0
   12.7230    2.2765  -12.1723 H   0  0
    7.8714    9.0953   -2.0102 H   0  0
   11.1294    4.0852  -12.9456 H   0  0
   10.5253    4.2062  -11.3083 H   0  0
    5.9945    9.8588   -3.2890 H   0  0
    7.0146   10.7307   -4.3876 H   0  0
    9.8611    1.7881  -11.3799 H   0  0
   10.4843    1.6605  -13.0093 H   0  0
    8.1518    3.4695  -12.1867 H   0  0
    8.6988    1.8262  -14.7049 H   0  0
    7.2083    2.8211  -14.3175 H   0  0
  1 10  1  0
  2 15  1  0
  3 17  1  0
  4  5  1  0
  4  6  1  0
  5  8  1  0
  6  7  1  0
  7  9  1  0
  8 10  1  0
  9 11  1  0
 10 12  1  0
 11 13  1  0
 12 15  1  0
 13 14  1  0
 14 16  1  0
 15 17  1  0
 16 18  1  0
 18 19  1  0
 19 20  2  0
  1 21  1  0
  2 22  1  0
  3 23  1  0
  4 24  1  0
  4 25  1  0
  5 26  1  0
  5 27  1  0
  6 28  1  0
  6 29  1  0
  7 30  1  0
  7 31  1  0
  8 32  1  0
  8 33  1  0
  9 34  1  0
  9 35  1  0
 10 36  1  0
 11 37  1  0
 11 38  1  0
 12 39  1  0
 12 40  1  0
 13 41  1  0
 13 42  1  0
 14 43  1  0
 14 44  1  0
 15 45  1  0
 16 46  1  0
 16 47  1  0
 17 48  1  0
 17 49  1  0
 18 50  1  0
 18 51  1  0
 19 52  1  0
 20 53  1  0
 20 54  1  0
M  END
> <Name>
158573

> <Binding Energy>
-24.1448

> <Ligand Energy>
44.6177

> <Protein Energy>
-7801.1566

> <Complex Energy>
-7780.6837

> <Complex Entropy>
-31.481

> <Protein Entropy>
-31.4717

> <Ligand Entropy>
-19.8558

> <Entropic Energy>
19.8465

> <AbsoluteEnergy>
18.2746

> <ConfNumber>
80

> <IonizationIndex>
1

> <MOL_NUMBER>
62

> <NumberOfIonizations>
1

> <NumberOfStereoisomers>
1

> <NumberOfTautomers>
1

> <PUBCHEM_ATOM_DEF_STEREO_COUNT>
0

> <PUBCHEM_ATOM_UDEF_STEREO_COUNT>
2

> <PUBCHEM_BOND_DEF_STEREO_COUNT>
0

> <PUBCHEM_BOND_UDEF_STEREO_COUNT>
0

> <PUBCHEM_CACTVS_TAUTO_COUNT>
1

> <PUBCHEM_COMPONENT_COUNT>
1

> <PUBCHEM_COMPOUND_CID>
158573

> <PUBCHEM_CONFORMER_DIVERSEORDER>
1
49
64
12
6
39
15
16
68
37
32
11
57
69
54
24
50
13
47
2
46
34
28
44
29
43
38
52
21
45
5
51
4
25
9
35
23
42
26
58
18
55
14
7
63
53
22
19
17
65
61
66
31
48
33
27
10
20
41
56
60
62
67
8
30
59
3
36
40

> <PUBCHEM_CONFORMER_ID>
00026B6D00000001

> <PUBCHEM_CONFORMER_RMSD>
1.4

> <PUBCHEM_COORDINATE_TYPE>
2
5
10

> <PUBCHEM_EFFECTIVE_ROTOR_COUNT>
15

> <PUBCHEM_FEATURE_SELFOVERLAP>
35.534

> <PUBCHEM_HEAVY_ATOM_COUNT>
20

> <PUBCHEM_ISOTOPIC_ATOM_COUNT>
0

> <PUBCHEM_MMFF94_ENERGY>
14.9664

> <PUBCHEM_MMFF94_PARTIAL_CHARGES>
15
1 -0.68
10 0.28
15 0.28
17 0.28
18 0.14
19 -0.29
2 -0.68
20 -0.3
3 -0.68
47 0.4
50 0.4
51 0.15
52 0.4
53 0.15
54 0.15

> <PUBCHEM_PHARMACOPHORE_FEATURES>
7
1 1 acceptor
1 1 donor
1 2 acceptor
1 2 donor
1 20 hydrophobe
1 3 acceptor
1 3 donor

> <PUBCHEM_SHAPE_FINGERPRINT>
11315181 36 12973888105322390325
14202775 3 18113623382892765834
14251764 18 17894347774469002307
14251764 46 18113617889480958522
14251920 1 18410573985151470627
15061470 23 18260545619837883828
15510794 2 18412267225228505646
155225 1 12175625074574173595
18335252 98 18060140921092523030
21095086 128 17894347774769760530
21362267 2 17059757993529430496
21362267 20 17894912966491617714
21362267 313 18263358089203644576
22224240 67 17675924308895602082
232437 2 18187364329400791674
23521765 1 18341895195152355684
23528940 14 18338519755588069563
23581129 1 18409448089539575814
33684 2 18408040715246840254
59521270 166 16370717125087755647
67123 10 18410575093880754492
8209 1 18187083958019523644
9663363 56 17489870432750465929

> <PUBCHEM_SHAPE_MULTIPOLES>
393.98
43.42
0.92
0.77
36.51
0.07
-0.03
-7.9
6.15
-1.52
0.06
0.26
-0.04
-0.09

> <PUBCHEM_SHAPE_SELFOVERLAP>
720.042

> <PUBCHEM_SHAPE_VOLUME>
249.7

> <RelativeEnergy>
6.85431

> <StereoisomerIndex>
1

> <TautomerIndex>
1

> <POSE_NUMBER>
10

> <LibDockScore>
110.724

> <HotSpots>
8.81,8.07,-6.66,P,48,1
8.61,9.67,-3.85,A,41,15
7.61,3.27,-13.26,A,25,19

> <-In-Situ Starting Energy>
-917.414468

> <-In-Situ Final Energy>
-7.36344496

> <In-Situ Gradient>
0.0009610793668

> <Favorable Total>
9

> <Unfavorable Total>
1

> <Charge Total>
0

> <Hydrophobic Total>
2

> <HydrogenBond Total>
7

> <Other Total>
0

> <Favorable A:LYS6>
0

> <Favorable A:ARG55>
0

> <Favorable A:LEU58>
0

> <Favorable A:LEU61>
1

> <Favorable A:ILE62>
0

> <Favorable A:GLY64>
0

> <Favorable A:SER65>
0

> <Favorable A:TRP66>
0

> <Favorable A:SER69>
0

> <Favorable A:VAL70>
0

> <Favorable A:PRO73>
0

> <Favorable A:ALA74>
0

> <Favorable A:PHE76>
0

> <Favorable A:ALA77>
0

> <Favorable A:THR78>
0

> <Favorable A:GLU79>
0

> <Favorable A:PHE82>
0

> <Favorable A:ARG83>
0

> <Favorable A:LEU85>
1

> <Favorable A:THR86>
0

> <Favorable A:TRP89>
0

> <Favorable A:THR90>
4

> <Favorable A:ASN93>
0

> <Favorable A:HIS94>
0

> <Favorable A:SER96>
0

> <Favorable A:VAL97>
0

> <Favorable A:TRP98>
0

> <Favorable A:PHE140>
0

> <Favorable A:LEU141>
0

> <Favorable A:ASN144>
2

> <Favorable A:ILE148>
0

> <Favorable A:ILE150>
0

> <Favorable A:HIS151>
0

> <Favorable A:ILE152>
0

> <Favorable A:ALA154>
0

> <Favorable A:SER155>
0

> <Favorable A:ILE156>
0

> <Favorable A:GLY158>
0

> <Favorable A:TYR159>
0

> <Favorable A:ARG160>
0

> <Favorable A:ARG161>
0

> <Favorable A:ASN162>
0

> <Favorable A:LYS163>
0

> <Favorable A:SER167>
0

> <Favorable A:ASP168>
0

> <Favorable A:SER169>
0

> <Favorable A:ASN171>
0

> <Favorable A:PHE172>
0

> <Favorable A:THR173>
0

> <Favorable A:ARG174>
0

> <Favorable A:PHE175>
0

> <Favorable A:SER176>
0

> <Favorable A:SER177>
0

> <Favorable A:LEU178>
0

> <Favorable A:ILE179>
0

> <Favorable A:VAL180>
0

> <Favorable A:LEU181>
0

> <Favorable A:SER183>
1

> <Favorable A:THR184>
0

> <Favorable A:PHE186>
0

> <Favorable A:ILE187>
0

> <Favorable A:PHE188>
0

> <Favorable A:ILE189>
0

> <Favorable A:PRO190>
0

> <Favorable A:PHE191>
0

> <Favorable A:TYR240>
0

> <Favorable A:PHE243>
0

> <Favorable A:SER244>
0

> <Favorable A:PHE247>
0

> <Favorable A:PHE248>
0

> <Favorable A:VAL251>
0

> <Favorable A:TRP252>
0

> <Favorable A:SER254>
0

> <Favorable A:GLU255>
0

> <Favorable A:ARG256>
0

> <Favorable A:LEU257>
0

> <Favorable A:GLU258>
0

> <Favorable A:GLU259>
0

> <Favorable A:LEU261>
0

> <Favorable A:ILE262>
0

> <Favorable A:ILE263>
0

> <Favorable A:SER265>
0

> <Favorable A:GLN266>
0

> <Favorable A:MET268>
0

> <Favorable A:GLY269>
0

> <Favorable A:TYR272>
0

> <Favorable A:PRO273>
0

> <Unfavorable A:ARG55>
0

> <Unfavorable A:PRO73>
0

> <Unfavorable A:PHE76>
0

> <Unfavorable A:GLU79>
0

> <Unfavorable A:ARG83>
0

> <Unfavorable A:THR86>
0

> <Unfavorable A:TRP89>
0

> <Unfavorable A:THR90>
0

> <Unfavorable A:ASN93>
1

> <Unfavorable A:TRP98>
0

> <Unfavorable A:ASN144>
0

> <Unfavorable A:SER155>
0

> <Unfavorable A:GLY158>
0

> <Unfavorable A:TYR159>
0

> <Unfavorable A:ASN162>
0

> <Unfavorable A:ASP168>
0

> <Unfavorable A:ASN171>
0

> <Unfavorable A:THR173>
0

> <Unfavorable A:ARG174>
0

> <Unfavorable A:SER183>
0

> <Unfavorable A:THR184>
0

> <Unfavorable A:PHE186>
0

> <Unfavorable A:SER244>
0

> <Unfavorable A:SER254>
0

> <Unfavorable A:GLU255>
0

> <Unfavorable A:SER265>
0

> <Unfavorable A:GLN266>
0

> <Unfavorable A:GLY269>
0

> <Charge A:ARG55>
0

> <Charge A:PHE76>
0

> <Charge A:GLU79>
0

> <Charge A:PHE82>
0

> <Charge A:ARG83>
0

> <Charge A:TRP89>
0

> <Charge A:HIS94>
0

> <Charge A:TRP98>
0

> <Charge A:TYR159>
0

> <Charge A:ARG161>
0

> <Charge A:LYS163>
0

> <Charge A:ASP168>
0

> <Charge A:PHE172>
0

> <Charge A:ARG174>
0

> <Charge A:PHE175>
0

> <Charge A:PHE188>
0

> <Charge A:PHE247>
0

> <Charge A:PHE248>
0

> <Hydrophobic A:LEU58>
0

> <Hydrophobic A:LEU61>
1

> <Hydrophobic A:ILE62>
0

> <Hydrophobic A:TRP66>
0

> <Hydrophobic A:VAL70>
0

> <Hydrophobic A:PRO73>
0

> <Hydrophobic A:ALA74>
0

> <Hydrophobic A:PHE76>
0

> <Hydrophobic A:ALA77>
0

> <Hydrophobic A:THR78>
0

> <Hydrophobic A:PHE82>
0

> <Hydrophobic A:ARG83>
0

> <Hydrophobic A:LEU85>
1

> <Hydrophobic A:TRP89>
0

> <Hydrophobic A:THR90>
0

> <Hydrophobic A:ASN93>
0

> <Hydrophobic A:HIS94>
0

> <Hydrophobic A:VAL97>
0

> <Hydrophobic A:TRP98>
0

> <Hydrophobic A:PHE140>
0

> <Hydrophobic A:LEU141>
0

> <Hydrophobic A:ILE148>
0

> <Hydrophobic A:ILE150>
0

> <Hydrophobic A:HIS151>
0

> <Hydrophobic A:ILE152>
0

> <Hydrophobic A:ALA154>
0

> <Hydrophobic A:SER155>
0

> <Hydrophobic A:ILE156>
0

> <Hydrophobic A:GLY158>
0

> <Hydrophobic A:TYR159>
0

> <Hydrophobic A:ARG160>
0

> <Hydrophobic A:ARG161>
0

> <Hydrophobic A:ASP168>
0

> <Hydrophobic A:ASN171>
0

> <Hydrophobic A:PHE172>
0

> <Hydrophobic A:ARG174>
0

> <Hydrophobic A:PHE175>
0

> <Hydrophobic A:LEU178>
0

> <Hydrophobic A:ILE179>
0

> <Hydrophobic A:VAL180>
0

> <Hydrophobic A:LEU181>
0

> <Hydrophobic A:PHE186>
0

> <Hydrophobic A:ILE187>
0

> <Hydrophobic A:PHE188>
0

> <Hydrophobic A:ILE189>
0

> <Hydrophobic A:PRO190>
0

> <Hydrophobic A:PHE191>
0

> <Hydrophobic A:TYR240>
0

> <Hydrophobic A:PHE243>
0

> <Hydrophobic A:PHE247>
0

> <Hydrophobic A:PHE248>
0

> <Hydrophobic A:VAL251>
0

> <Hydrophobic A:TRP252>
0

> <Hydrophobic A:SER254>
0

> <Hydrophobic A:LEU261>
0

> <Hydrophobic A:ILE262>
0

> <Hydrophobic A:ILE263>
0

> <Hydrophobic A:TYR272>
0

> <Hydrophobic A:PRO273>
0

> <HydrogenBond A:LYS6>
0

> <HydrogenBond A:ARG55>
0

> <HydrogenBond A:GLY64>
0

> <HydrogenBond A:SER65>
0

> <HydrogenBond A:TRP66>
0

> <HydrogenBond A:SER69>
0

> <HydrogenBond A:PRO73>
0

> <HydrogenBond A:ALA74>
0

> <HydrogenBond A:PHE76>
0

> <HydrogenBond A:ALA77>
0

> <HydrogenBond A:THR78>
0

> <HydrogenBond A:GLU79>
0

> <HydrogenBond A:PHE82>
0

> <HydrogenBond A:ARG83>
0

> <HydrogenBond A:LEU85>
0

> <HydrogenBond A:THR86>
0

> <HydrogenBond A:TRP89>
0

> <HydrogenBond A:THR90>
4

> <HydrogenBond A:ASN93>
0

> <HydrogenBond A:HIS94>
0

> <HydrogenBond A:SER96>
0

> <HydrogenBond A:TRP98>
0

> <HydrogenBond A:ASN144>
2

> <HydrogenBond A:HIS151>
0

> <HydrogenBond A:ILE152>
0

> <HydrogenBond A:ALA154>
0

> <HydrogenBond A:SER155>
0

> <HydrogenBond A:ILE156>
0

> <HydrogenBond A:GLY158>
0

> <HydrogenBond A:TYR159>
0

> <HydrogenBond A:ASN162>
0

> <HydrogenBond A:LYS163>
0

> <HydrogenBond A:SER167>
0

> <HydrogenBond A:ASP168>
0

> <HydrogenBond A:SER169>
0

> <HydrogenBond A:ASN171>
0

> <HydrogenBond A:PHE172>
0

> <HydrogenBond A:THR173>
0

> <HydrogenBond A:ARG174>
0

> <HydrogenBond A:PHE175>
0

> <HydrogenBond A:SER176>
0

> <HydrogenBond A:SER177>
0

> <HydrogenBond A:ILE179>
0

> <HydrogenBond A:VAL180>
0

> <HydrogenBond A:SER183>
1

> <HydrogenBond A:THR184>
0

> <HydrogenBond A:PHE186>
0

> <HydrogenBond A:ILE187>
0

> <HydrogenBond A:PRO190>
0

> <HydrogenBond A:TYR240>
0

> <HydrogenBond A:PHE243>
0

> <HydrogenBond A:SER244>
0

> <HydrogenBond A:PHE247>
0

> <HydrogenBond A:VAL251>
0

> <HydrogenBond A:SER254>
0

> <HydrogenBond A:GLU255>
0

> <HydrogenBond A:ARG256>
0

> <HydrogenBond A:LEU257>
0

> <HydrogenBond A:GLU258>
0

> <HydrogenBond A:GLU259>
0

> <HydrogenBond A:ILE262>
0

> <HydrogenBond A:SER265>
0

> <HydrogenBond A:GLN266>
0

> <HydrogenBond A:MET268>
0

> <HydrogenBond A:GLY269>
0

> <HydrogenBond A:PRO273>
0

> <Other A:SER69>
0

> <Other A:TRP89>
0

> <Other A:TYR159>
0

> <Other A:PHE172>
0

> <Other A:SER176>
0

> <Other A:SER265>
0

$$$$
234540
  SciTegic09122300493D

 32 33  0  0  0  0            999 V2000
    6.5734    0.1465    2.1495 O   0  5  0  1  0  0
    6.7639   -2.2987    0.3603 O   0  0  0  1  0  0
    7.0782    0.9840    1.0311 N   0  3  2  1  0  0
    6.1994    2.1613    0.8651 C   0  0  1  1  0  0
    7.2040    0.0716   -0.1294 C   0  0  2  1  0  0
    8.4129    1.5273    1.3674 C   0  0  0  1  0  0
    4.9082    1.9279    0.0832 C   0  0  0  1  0  0
    5.9791    2.7341    2.2823 C   0  0  0  1  0  0
    5.9128   -0.0968   -0.9478 C   0  0  0  1  0  0
    5.1921    1.2090   -1.2244 C   0  0  0  1  0  0
    8.5543    2.6661    2.3957 C   0  0  0  1  0  0
    7.2573    3.4633    2.6659 C   0  0  0  1  0  0
    7.7763   -1.3060    0.3026 C   0  0  0  1  0  0
    7.1334   -3.1837    0.2605 H   0  0
    6.7409    2.8883    0.2534 H   0  0
    7.9122    0.5295   -0.8221 H   0  0
    8.8387    1.9088    0.4399 H   0  0
    9.0229    0.6959    1.6904 H   0  0
    4.4295    2.8595   -0.1902 H   0  0
    4.2085    1.4073    0.7114 H   0  0
    5.6606    1.9836    2.9994 H   0  0
    5.1743    3.4490    2.3470 H   0  0
    6.1759   -0.5367   -1.9032 H   0  0
    5.2201   -0.7744   -0.4573 H   0  0
    4.2678    1.0171   -1.7674 H   0  0
    5.8026    1.8399   -1.8731 H   0  0
    9.0855    2.3458    3.2816 H   0  0
    9.3166    3.3371    2.0224 H   0  0
    7.2254    4.2772    1.9658 H   0  0
    7.2229    3.9454    3.6454 H   0  0
    8.5843   -1.5849   -0.3801 H   0  0
    8.2332   -1.2664    1.2929 H   0  0
  1  3  1  0
  2 13  1  0
  3  4  1  0
  3  5  1  0
  3  6  1  0
  4  7  1  0
  4  8  1  0
  5  9  1  0
  5 13  1  0
  6 11  1  0
  7 10  1  0
  8 12  1  0
  9 10  1  0
 11 12  1  0
  2 14  1  0
  4 15  1  0
  5 16  1  0
  6 17  1  0
  6 18  1  0
  7 19  1  0
  7 20  1  0
  8 21  1  0
  8 22  1  0
  9 23  1  0
  9 24  1  0
 10 25  1  0
 10 26  1  0
 11 27  1  0
 11 28  1  0
 12 29  1  0
 12 30  1  0
 13 31  1  0
 13 32  1  0
M  CHG  2   1  -1   3   1
M  END
> <Name>
234540

> <Binding Energy>
-22.9742

> <Ligand Energy>
73.2411

> <Protein Energy>
-7801.1566

> <Complex Energy>
-7750.8898

> <Complex Entropy>
-31.4766

> <Protein Entropy>
-31.4717

> <Ligand Entropy>
-17.888

> <Entropic Energy>
17.8831

> <AbsoluteEnergy>
8.05082

> <ConfNumber>
2

> <IonizationIndex>
1

> <MOL_NUMBER>
72

> <NumberOfIonizations>
1

> <NumberOfStereoisomers>
1

> <NumberOfTautomers>
1

> <PUBCHEM_ATOM_DEF_STEREO_COUNT>
0

> <PUBCHEM_ATOM_UDEF_STEREO_COUNT>
3

> <PUBCHEM_BOND_DEF_STEREO_COUNT>
0

> <PUBCHEM_BOND_UDEF_STEREO_COUNT>
0

> <PUBCHEM_CACTVS_TAUTO_COUNT>
1

> <PUBCHEM_COMPONENT_COUNT>
1

> <PUBCHEM_COMPOUND_CID>
234540

> <PUBCHEM_CONFORMER_DIVERSEORDER>
1
7
12
9
4
11
8
5
3
6
10
2

> <PUBCHEM_CONFORMER_ID>
0003942C00000001

> <PUBCHEM_CONFORMER_RMSD>
0.6

> <PUBCHEM_COORDINATE_TYPE>
2
5
10

> <PUBCHEM_EFFECTIVE_ROTOR_COUNT>
2.6

> <PUBCHEM_FEATURE_SELFOVERLAP>
25.389

> <PUBCHEM_HEAVY_ATOM_COUNT>
13

> <PUBCHEM_ISOTOPIC_ATOM_COUNT>
0

> <PUBCHEM_MMFF94_ENERGY>
20.3891

> <PUBCHEM_MMFF94_PARTIAL_CHARGES>
8
1 -0.75
13 0.28
2 -0.68
3 -0.02
32 0.4
4 0.26
5 0.26
6 0.26

> <PUBCHEM_PHARMACOPHORE_FEATURES>
5
1 1 anion
1 2 acceptor
1 2 donor
6 3 4 5 7 9 10 rings
6 3 4 6 8 11 12 rings

> <PUBCHEM_SHAPE_FINGERPRINT>
1 1 18411698759829889318
12524768 44 18261114036999199501
12897270 3 18408328778313071069
13380535 76 18409726300599786318
13897977 150 18410012126478451749
14128692 85 18125158225818298655
14648413 74 18263364685656394613
14817 1 11126713062424225866
15775835 57 18341903995208113749
161256 15 18335704879978578877
16945 1 18265336097135873959
17990270 104 18194965140986950423
193761 8 18409732880305424798
19973954 147 18337114453911780885
20201158 50 18265614286431097591
20871998 184 17905615753960817767
21040471 1 18265057001544548174
21501502 16 18338800018201204085
22344851 341 18408881811002649562
2334 1 18336831982460537487
23402539 116 17908971442042590775
23552423 10 18335423405091714327
23559900 14 18270137747078891990
241688 4 17330278268828561858
2748010 2 18335711567237682823
305870 269 18335411370535231184
5084963 1 18341896234154678543
5255222 1 18045501911131271725
528886 8 18335702792518971341
53812653 166 18339360764936642254
63268167 104 18121508950841231723
66348 1 18336271154152434151
7364860 26 18270398283019317582
81228 2 17404585966347525546

> <PUBCHEM_SHAPE_MULTIPOLES>
250.81
3.7
2.39
0.87
1.26
0.56
0.13
-0.9
-0.12
-0.93
0.03
-0.15
-0.17
0.3

> <PUBCHEM_SHAPE_SELFOVERLAP>
504.046

> <PUBCHEM_SHAPE_VOLUME>
146.8

> <RelativeEnergy>
1.71651

> <StereoisomerIndex>
1

> <TautomerIndex>
1

> <POSE_NUMBER>
1

> <LibDockScore>
77.1275

> <HotSpots>
6.61,4.27,3.15,A,86,8
6.01,0.67,0.55,A,70,9
7.81,4.27,4.14,A,90,12

> <-In-Situ Starting Energy>
-4038.81356

> <-In-Situ Final Energy>
-31.6803431

> <In-Situ Gradient>
0.0009785433774

> <Favorable Total>
7

> <Unfavorable Total>
0

> <Charge Total>
1

> <Hydrophobic Total>
4

> <HydrogenBond Total>
2

> <Other Total>
0

> <Favorable A:LYS6>
0

> <Favorable A:ARG55>
0

> <Favorable A:LEU58>
1

> <Favorable A:LEU61>
0

> <Favorable A:ILE62>
0

> <Favorable A:GLY64>
0

> <Favorable A:SER65>
0

> <Favorable A:TRP66>
0

> <Favorable A:SER69>
0

> <Favorable A:VAL70>
0

> <Favorable A:PRO73>
0

> <Favorable A:ALA74>
0

> <Favorable A:PHE76>
0

> <Favorable A:ALA77>
0

> <Favorable A:THR78>
0

> <Favorable A:GLU79>
0

> <Favorable A:PHE82>
0

> <Favorable A:ARG83>
0

> <Favorable A:LEU85>
0

> <Favorable A:THR86>
0

> <Favorable A:TRP89>
0

> <Favorable A:THR90>
0

> <Favorable A:ASN93>
0

> <Favorable A:HIS94>
0

> <Favorable A:SER96>
0

> <Favorable A:VAL97>
1

> <Favorable A:TRP98>
0

> <Favorable A:PHE140>
0

> <Favorable A:LEU141>
0

> <Favorable A:ASN144>
0

> <Favorable A:ILE148>
0

> <Favorable A:ILE150>
0

> <Favorable A:HIS151>
0

> <Favorable A:ILE152>
0

> <Favorable A:ALA154>
0

> <Favorable A:SER155>
0

> <Favorable A:ILE156>
0

> <Favorable A:GLY158>
0

> <Favorable A:TYR159>
0

> <Favorable A:ARG160>
0

> <Favorable A:ARG161>
0

> <Favorable A:ASN162>
0

> <Favorable A:LYS163>
0

> <Favorable A:SER167>
0

> <Favorable A:ASP168>
0

> <Favorable A:SER169>
0

> <Favorable A:ASN171>
0

> <Favorable A:PHE172>
0

> <Favorable A:THR173>
0

> <Favorable A:ARG174>
0

> <Favorable A:PHE175>
0

> <Favorable A:SER176>
0

> <Favorable A:SER177>
0

> <Favorable A:LEU178>
0

> <Favorable A:ILE179>
0

> <Favorable A:VAL180>
0

> <Favorable A:LEU181>
0

> <Favorable A:SER183>
0

> <Favorable A:THR184>
0

> <Favorable A:PHE186>
0

> <Favorable A:ILE187>
1

> <Favorable A:PHE188>
0

> <Favorable A:ILE189>
0

> <Favorable A:PRO190>
0

> <Favorable A:PHE191>
0

> <Favorable A:TYR240>
1

> <Favorable A:PHE243>
0

> <Favorable A:SER244>
0

> <Favorable A:PHE247>
1

> <Favorable A:PHE248>
0

> <Favorable A:VAL251>
0

> <Favorable A:TRP252>
0

> <Favorable A:SER254>
0

> <Favorable A:GLU255>
0

> <Favorable A:ARG256>
0

> <Favorable A:LEU257>
0

> <Favorable A:GLU258>
0

> <Favorable A:GLU259>
0

> <Favorable A:LEU261>
0

> <Favorable A:ILE262>
0

> <Favorable A:ILE263>
0

> <Favorable A:SER265>
0

> <Favorable A:GLN266>
0

> <Favorable A:MET268>
2

> <Favorable A:GLY269>
0

> <Favorable A:TYR272>
0

> <Favorable A:PRO273>
0

> <Unfavorable A:ARG55>
0

> <Unfavorable A:PRO73>
0

> <Unfavorable A:PHE76>
0

> <Unfavorable A:GLU79>
0

> <Unfavorable A:ARG83>
0

> <Unfavorable A:THR86>
0

> <Unfavorable A:TRP89>
0

> <Unfavorable A:THR90>
0

> <Unfavorable A:ASN93>
0

> <Unfavorable A:TRP98>
0

> <Unfavorable A:ASN144>
0

> <Unfavorable A:SER155>
0

> <Unfavorable A:GLY158>
0

> <Unfavorable A:TYR159>
0

> <Unfavorable A:ASN162>
0

> <Unfavorable A:ASP168>
0

> <Unfavorable A:ASN171>
0

> <Unfavorable A:THR173>
0

> <Unfavorable A:ARG174>
0

> <Unfavorable A:SER183>
0

> <Unfavorable A:THR184>
0

> <Unfavorable A:PHE186>
0

> <Unfavorable A:SER244>
0

> <Unfavorable A:SER254>
0

> <Unfavorable A:GLU255>
0

> <Unfavorable A:SER265>
0

> <Unfavorable A:GLN266>
0

> <Unfavorable A:GLY269>
0

> <Charge A:ARG55>
0

> <Charge A:PHE76>
0

> <Charge A:GLU79>
0

> <Charge A:PHE82>
0

> <Charge A:ARG83>
0

> <Charge A:TRP89>
0

> <Charge A:HIS94>
0

> <Charge A:TRP98>
0

> <Charge A:TYR159>
0

> <Charge A:ARG161>
0

> <Charge A:LYS163>
0

> <Charge A:ASP168>
0

> <Charge A:PHE172>
0

> <Charge A:ARG174>
0

> <Charge A:PHE175>
0

> <Charge A:PHE188>
0

> <Charge A:PHE247>
1

> <Charge A:PHE248>
0

> <Hydrophobic A:LEU58>
1

> <Hydrophobic A:LEU61>
0

> <Hydrophobic A:ILE62>
0

> <Hydrophobic A:TRP66>
0

> <Hydrophobic A:VAL70>
0

> <Hydrophobic A:PRO73>
0

> <Hydrophobic A:ALA74>
0

> <Hydrophobic A:PHE76>
0

> <Hydrophobic A:ALA77>
0

> <Hydrophobic A:THR78>
0

> <Hydrophobic A:PHE82>
0

> <Hydrophobic A:ARG83>
0

> <Hydrophobic A:LEU85>
0

> <Hydrophobic A:TRP89>
0

> <Hydrophobic A:THR90>
0

> <Hydrophobic A:ASN93>
0

> <Hydrophobic A:HIS94>
0

> <Hydrophobic A:VAL97>
1

> <Hydrophobic A:TRP98>
0

> <Hydrophobic A:PHE140>
0

> <Hydrophobic A:LEU141>
0

> <Hydrophobic A:ILE148>
0

> <Hydrophobic A:ILE150>
0

> <Hydrophobic A:HIS151>
0

> <Hydrophobic A:ILE152>
0

> <Hydrophobic A:ALA154>
0

> <Hydrophobic A:SER155>
0

> <Hydrophobic A:ILE156>
0

> <Hydrophobic A:GLY158>
0

> <Hydrophobic A:TYR159>
0

> <Hydrophobic A:ARG160>
0

> <Hydrophobic A:ARG161>
0

> <Hydrophobic A:ASP168>
0

> <Hydrophobic A:ASN171>
0

> <Hydrophobic A:PHE172>
0

> <Hydrophobic A:ARG174>
0

> <Hydrophobic A:PHE175>
0

> <Hydrophobic A:LEU178>
0

> <Hydrophobic A:ILE179>
0

> <Hydrophobic A:VAL180>
0

> <Hydrophobic A:LEU181>
0

> <Hydrophobic A:PHE186>
0

> <Hydrophobic A:ILE187>
1

> <Hydrophobic A:PHE188>
0

> <Hydrophobic A:ILE189>
0

> <Hydrophobic A:PRO190>
0

> <Hydrophobic A:PHE191>
0

> <Hydrophobic A:TYR240>
1

> <Hydrophobic A:PHE243>
0

> <Hydrophobic A:PHE247>
0

> <Hydrophobic A:PHE248>
0

> <Hydrophobic A:VAL251>
0

> <Hydrophobic A:TRP252>
0

> <Hydrophobic A:SER254>
0

> <Hydrophobic A:LEU261>
0

> <Hydrophobic A:ILE262>
0

> <Hydrophobic A:ILE263>
0

> <Hydrophobic A:TYR272>
0

> <Hydrophobic A:PRO273>
0

> <HydrogenBond A:LYS6>
0

> <HydrogenBond A:ARG55>
0

> <HydrogenBond A:GLY64>
0

> <HydrogenBond A:SER65>
0

> <HydrogenBond A:TRP66>
0

> <HydrogenBond A:SER69>
0

> <HydrogenBond A:PRO73>
0

> <HydrogenBond A:ALA74>
0

> <HydrogenBond A:PHE76>
0

> <HydrogenBond A:ALA77>
0

> <HydrogenBond A:THR78>
0

> <HydrogenBond A:GLU79>
0

> <HydrogenBond A:PHE82>
0

> <HydrogenBond A:ARG83>
0

> <HydrogenBond A:LEU85>
0

> <HydrogenBond A:THR86>
0

> <HydrogenBond A:TRP89>
0

> <HydrogenBond A:THR90>
0

> <HydrogenBond A:ASN93>
0

> <HydrogenBond A:HIS94>
0

> <HydrogenBond A:SER96>
0

> <HydrogenBond A:TRP98>
0

> <HydrogenBond A:ASN144>
0

> <HydrogenBond A:HIS151>
0

> <HydrogenBond A:ILE152>
0

> <HydrogenBond A:ALA154>
0

> <HydrogenBond A:SER155>
0

> <HydrogenBond A:ILE156>
0

> <HydrogenBond A:GLY158>
0

> <HydrogenBond A:TYR159>
0

> <HydrogenBond A:ASN162>
0

> <HydrogenBond A:LYS163>
0

> <HydrogenBond A:SER167>
0

> <HydrogenBond A:ASP168>
0

> <HydrogenBond A:SER169>
0

> <HydrogenBond A:ASN171>
0

> <HydrogenBond A:PHE172>
0

> <HydrogenBond A:THR173>
0

> <HydrogenBond A:ARG174>
0

> <HydrogenBond A:PHE175>
0

> <HydrogenBond A:SER176>
0

> <HydrogenBond A:SER177>
0

> <HydrogenBond A:ILE179>
0

> <HydrogenBond A:VAL180>
0

> <HydrogenBond A:SER183>
0

> <HydrogenBond A:THR184>
0

> <HydrogenBond A:PHE186>
0

> <HydrogenBond A:ILE187>
0

> <HydrogenBond A:PRO190>
0

> <HydrogenBond A:TYR240>
0

> <HydrogenBond A:PHE243>
0

> <HydrogenBond A:SER244>
0

> <HydrogenBond A:PHE247>
0

> <HydrogenBond A:VAL251>
0

> <HydrogenBond A:SER254>
0

> <HydrogenBond A:GLU255>
0

> <HydrogenBond A:ARG256>
0

> <HydrogenBond A:LEU257>
0

> <HydrogenBond A:GLU258>
0

> <HydrogenBond A:GLU259>
0

> <HydrogenBond A:ILE262>
0

> <HydrogenBond A:SER265>
0

> <HydrogenBond A:GLN266>
0

> <HydrogenBond A:MET268>
2

> <HydrogenBond A:GLY269>
0

> <HydrogenBond A:PRO273>
0

> <Other A:SER69>
0

> <Other A:TRP89>
0

> <Other A:TYR159>
0

> <Other A:PHE172>
0

> <Other A:SER176>
0

> <Other A:SER265>
0

$$$$
441207
  SciTegic09122300493D

118125  0  0  0  0            999 V2000
   22.7177    6.1443  -23.2019 O   0  0  0  1  0  0
   20.5391   -1.4535  -22.1074 O   0  0  0  1  0  0
   25.1641    9.7915  -18.6509 O   0  0  0  1  0  0
   19.7399   -1.0984  -19.9872 O   0  0  0  1  0  0
   23.4746   11.2576  -18.1841 O   0  0  0  1  0  0
   16.6160   -0.2473  -20.9486 O   0  0  0  1  0  0
   16.5223   -1.6308  -18.3788 O   0  0  0  1  0  0
   17.4852   -3.1713  -17.0069 O   0  0  0  1  0  0
   15.8172   -6.0464  -15.7978 O   0  0  0  1  0  0
   15.1903   -6.2697  -18.1575 O   0  0  0  1  0  0
   15.3121   -7.7996  -14.3596 O   0  0  0  1  0  0
   13.2843   -4.3701  -13.1943 O   0  0  0  1  0  0
   12.5256   -6.6904  -13.1597 O   0  0  0  1  0  0
   22.8740    5.2997  -22.0664 C   0  0  1  1  0  0
   23.0409    3.8430  -22.5823 C   0  0  1  1  0  0
   23.7952    2.9245  -21.6115 C   0  0  1  1  0  0
   24.0751    5.8941  -21.2421 C   0  0  2  1  0  0
   23.7883    1.3830  -21.9749 C   0  0  2  1  0  0
   22.9954    1.0387  -23.3131 C   0  0  2  1  0  0
   25.1566    3.5448  -21.2754 C   0  0  0  1  0  0
   24.9213    4.8310  -20.4872 C   0  0  0  1  0  0
   23.3876    6.8281  -20.1857 C   0  0  2  1  0  0
   21.6862    3.1909  -22.8685 C   0  0  0  1  0  0
   21.6537    5.5066  -21.1618 C   0  0  0  1  0  0
   21.9014    2.0191  -23.7911 C   0  0  0  1  0  0
   21.9129    6.8852  -20.5968 C   0  0  0  1  0  0
   23.2456    0.6474  -20.6950 C   0  0  0  1  0  0
   22.3786   -0.3700  -23.3191 C   0  0  0  1  0  0
   25.0369    6.6105  -22.1765 C   0  0  0  1  0  0
   25.2225    0.8476  -22.2013 C   0  0  0  1  0  0
   22.5878   -0.7111  -20.9225 C   0  0  0  1  0  0
   21.5729   -0.4945  -22.0359 C   0  0  2  1  0  0
   23.8653    8.1819  -19.6863 C   0  0  0  1  0  0
   25.2808    8.4980  -19.2641 C   0  0  0  1  0  0
   23.1402    9.2905  -19.4974 C   0  0  0  1  0  0
   19.3984   -1.0605  -21.3629 C   0  0  2  1  0  0
   23.9232   10.2483  -18.7188 C   0  0  0  1  0  0
   18.1962   -1.9503  -21.6773 C   0  0  0  1  0  0
   17.0567   -1.5794  -20.7232 C   0  0  1  1  0  0
   18.7194   -0.7494  -19.0718 C   0  0  1  1  0  0
   17.5884   -1.7481  -19.3042 C   0  0  1  1  0  0
   19.2973   -0.8250  -17.6559 C   0  0  0  1  0  0
   16.2748   -2.7869  -17.5994 C   0  0  2  1  0  0
   15.7861   -3.9488  -18.4662 C   0  0  0  1  0  0
   16.2664   -5.3522  -18.0165 C   0  0  1  1  0  0
   17.3771   -4.1429  -15.9999 C   0  0  1  1  0  0
   16.8535   -5.4847  -16.5814 C   0  0  1  1  0  0
   18.7965   -4.1924  -15.4340 C   0  0  0  1  0  0
   16.0425   -6.6008  -14.5113 C   0  0  2  1  0  0
   15.4195   -5.6793  -13.4809 C   0  0  0  1  0  0
   14.0985   -5.1809  -14.0385 C   0  0  1  1  0  0
   13.9573   -7.7240  -14.7658 C   0  0  1  1  0  0
   13.2155   -6.4104  -14.3617 C   0  0  1  1  0  0
   13.9061   -8.1996  -16.2138 C   0  0  0  1  0  0
   21.9357    5.9343  -23.6903 H   0  0
   16.0938   -0.2084  -21.7519 H   0  0
   14.8414   -6.2700  -19.0534 H   0  0
   12.6507   -3.8845  -13.7150 H   0  0
   12.3169   -5.8792  -12.6881 H   0  0
   23.6268    3.8870  -23.5022 H   0  0
   23.2277    3.0350  -20.6884 H   0  0
   23.7253    1.0475  -24.1242 H   0  0
   25.7406    3.7309  -22.1769 H   0  0
   25.7451    2.8845  -20.6404 H   0  0
   24.4395    4.5301  -19.5570 H   0  0
   25.8759    5.2584  -20.1767 H   0  0
   23.3718    6.2270  -19.2875 H   0  0
   20.9624    3.8513  -23.3398 H   0  0
   21.2203    2.8608  -21.9391 H   0  0
   20.6862    5.4434  -21.6603 H   0  0
   21.6514    4.7707  -20.3563 H   0  0
   20.9406    1.5242  -23.9375 H   0  0
   22.1728    2.3999  -24.7770 H   0  0
   21.2272    7.1330  -19.7924 H   0  0
   21.7709    7.6338  -21.3774 H   0  0
   24.0255    0.5602  -19.9383 H   0  0
   22.4639    1.2410  -20.2199 H   0  0
   21.7405   -0.5169  -24.1910 H   0  0
   23.1483   -1.1402  -23.3819 H   0  0
   24.5136    7.3976  -22.7024 H   0  0
   25.4355    5.9357  -22.9335 H   0  0
   25.8811    7.0223  -21.6331 H   0  0
   25.8374    0.8851  -21.3027 H   0  0
   25.7380    1.4071  -22.9826 H   0  0
   25.2021   -0.1979  -22.5104 H   0  0
   22.1150   -1.0470  -20.0015 H   0  0
   23.3210   -1.4738  -21.1856 H   0  0
   21.1006    0.4750  -21.8672 H   0  0
   25.6640    7.8124  -18.5258 H   0  0
   25.9718    8.5420  -20.1044 H   0  0
   22.1297    9.4564  -19.8169 H   0  0
   19.1107   -0.0405  -21.6274 H   0  0
   18.4739   -2.9957  -21.5447 H   0  0
   17.8996   -1.8346  -22.7192 H   0  0
   16.2123   -2.2602  -20.8195 H   0  0
   18.3745    0.2670  -19.2678 H   0  0
   18.0426   -2.7387  -19.2419 H   0  0
   20.1243   -0.1262  -17.5365 H   0  0
   19.6735   -1.8252  -17.4424 H   0  0
   18.5405   -0.5824  -16.9096 H   0  0
   15.5398   -2.5475  -16.8279 H   0  0
   16.1461   -3.8382  -19.4818 H   0  0
   14.7086   -3.8556  -18.5733 H   0  0
   17.0782   -5.6535  -18.6878 H   0  0
   16.6955   -3.7747  -15.2333 H   0  0
   17.6657   -6.2096  -16.6261 H   0  0
   19.1526   -3.1865  -15.2129 H   0  0
   19.4911   -4.6391  -16.1464 H   0  0
   18.8505   -4.7460  -14.5077 H   0  0
   17.0968   -6.7820  -14.3201 H   0  0
   16.1071   -4.8635  -13.3068 H   0  0
   15.2429   -6.2346  -12.5630 H   0  0
   14.4273   -4.5584  -14.8651 H   0  0
   13.3891   -8.4908  -14.2527 H   0  0
   12.4434   -6.2150  -15.0868 H   0  0
   13.8550   -9.2860  -16.2318 H   0  0
   14.8185   -7.9695  -16.7505 H   0  0
   13.0538   -7.8004  -16.7508 H   0  0
  1 14  1  0
  2 32  1  0
  2 36  1  0
  3 34  1  0
  3 37  1  0
  4 36  1  0
  4 40  1  0
  5 37  2  0
  6 39  1  0
  7 41  1  0
  7 43  1  0
  8 43  1  0
  8 46  1  0
  9 47  1  0
  9 49  1  0
 10 45  1  0
 11 49  1  0
 11 52  1  0
 12 51  1  0
 13 53  1  0
 14 15  1  0
 14 17  1  0
 14 24  1  0
 15 16  1  0
 15 23  1  0
 16 18  1  0
 16 20  1  0
 17 21  1  0
 17 22  1  0
 17 29  1  0
 18 19  1  0
 18 27  1  0
 18 30  1  0
 19 25  1  0
 19 28  1  0
 20 21  1  0
 22 26  1  0
 22 33  1  0
 23 25  1  0
 24 26  1  0
 27 31  1  0
 28 32  1  0
 31 32  1  0
 33 34  1  0
 33 35  2  0
 35 37  1  0
 36 38  1  0
 38 39  1  0
 39 41  1  0
 40 41  1  0
 40 42  1  0
 43 44  1  0
 44 45  1  0
 45 47  1  0
 46 47  1  0
 46 48  1  0
 49 50  1  0
 50 51  1  0
 51 53  1  0
 52 53  1  0
 52 54  1  0
  1 55  1  0
  6 56  1  0
 10 57  1  0
 12 58  1  0
 13 59  1  0
 15 60  1  0
 16 61  1  0
 19 62  1  0
 20 63  1  0
 20 64  1  0
 21 65  1  0
 21 66  1  0
 22 67  1  0
 23 68  1  0
 23 69  1  0
 24 70  1  0
 24 71  1  0
 25 72  1  0
 25 73  1  0
 26 74  1  0
 26 75  1  0
 27 76  1  0
 27 77  1  0
 28 78  1  0
 28 79  1  0
 29 80  1  0
 29 81  1  0
 29 82  1  0
 30 83  1  0
 30 84  1  0
 30 85  1  0
 31 86  1  0
 31 87  1  0
 32 88  1  0
 34 89  1  0
 34 90  1  0
 35 91  1  0
 36 92  1  0
 38 93  1  0
 38 94  1  0
 39 95  1  0
 40 96  1  0
 41 97  1  0
 42 98  1  0
 42 99  1  0
 42100  1  0
 43101  1  0
 44102  1  0
 44103  1  0
 45104  1  0
 46105  1  0
 47106  1  0
 48107  1  0
 48108  1  0
 48109  1  0
 49110  1  0
 50111  1  0
 50112  1  0
 51113  1  0
 52114  1  0
 53115  1  0
 54116  1  0
 54117  1  0
 54118  1  0
M  END
> <Name>
441207

> <Binding Energy>
-55.2186

> <Ligand Energy>
149.1072

> <Protein Energy>
-7801.1566

> <Complex Energy>
-7707.2681

> <Complex Entropy>
-31.5123

> <Protein Entropy>
-31.4717

> <Ligand Entropy>
-22.1635

> <Entropic Energy>
22.1229

> <AbsoluteEnergy>
95.3728

> <ConfNumber>
147

> <IonizationIndex>
1

> <MOL_NUMBER>
83

> <NumberOfIonizations>
1

> <NumberOfStereoisomers>
1

> <NumberOfTautomers>
1

> <PUBCHEM_ATOM_DEF_STEREO_COUNT>
20

> <PUBCHEM_ATOM_UDEF_STEREO_COUNT>
0

> <PUBCHEM_BONDANNOTATIONS>
14  1  5
45  10  6
51  12  5
53  13  5
15  55  5
16  56  6
17  29  5
18  30  5
19  57  5
32  2  5
36  2  5
22  33  5
40  42  5
46  48  5
52  54  6
39  6  6
41  7  6
43  7  5
47  9  6
49  9  6

> <PUBCHEM_BOND_DEF_STEREO_COUNT>
0

> <PUBCHEM_BOND_UDEF_STEREO_COUNT>
0

> <PUBCHEM_CACTVS_COMPLEXITY>
1410

> <PUBCHEM_CACTVS_HBOND_ACCEPTOR>
13

> <PUBCHEM_CACTVS_HBOND_DONOR>
5

> <PUBCHEM_CACTVS_ROTATABLE_BOND>
7

> <PUBCHEM_CACTVS_SUBSKEYS>
AAADcfB8PAAAAAAAAAAAAAAAAAAAAYIAAAA0aNECAAAAAGDAAAAAGgAACAAAD1SwgAMCCAAABgCIAiDSCAAAAAAgAAAACAAAAEgRFAIAIQAiUAAFgAAPIQPA4PwPgAAAAAAAAADAAAYAADAAAYAADAAAAA==

> <PUBCHEM_CACTVS_TAUTO_COUNT>
-1

> <PUBCHEM_CACTVS_TPSA>
183

> <PUBCHEM_COMPONENT_COUNT>
1

> <PUBCHEM_COMPOUND_CANONICALIZED>
1

> <PUBCHEM_COMPOUND_CID>
441207

> <PUBCHEM_COORDINATE_TYPE>
1
5
255

> <PUBCHEM_EXACT_MASS>
764.43469209

> <PUBCHEM_HEAVY_ATOM_COUNT>
54

> <PUBCHEM_ISOTOPIC_ATOM_COUNT>
0

> <PUBCHEM_IUPAC_CAS_NAME>
3-[(3S,5R,8R,9S,10S,13R,14S,17R)-3-[[(2R,4S,5S,6R)-5-[[(2S,4S,5S,6R)-5-[[(2S,4S,5S,6R)-4,5-dihydroxy-6-methyl-2-oxanyl]oxy]-4-hydroxy-6-methyl-2-oxanyl]oxy]-4-hydroxy-6-methyl-2-oxanyl]oxy]-14-hydroxy
-10,13-dimethyl-1,2,3,4,5,6,7,8,9,11,12,15,16,17-tetradecahydrocyclopenta[a]phenanthren-17-yl]-2H-furan-5-one

> <PUBCHEM_IUPAC_INCHI>
InChI=1S/C41H64O13/c1-20-36(46)29(42)16-34(49-20)53-38-22(3)51-35(18-31(38)44)54-37-21(2)50-33(17-30(37)43)52-25-8-11-39(4)24(15-25)6-7-28-27(39)9-12-40(5)26(10-13-41(28,40)47)23-14-32(45)48-19-23/h14
,20-22,24-31,33-38,42-44,46-47H,6-13,15-19H2,1-5H3/t20-,21-,22-,24-,25+,26-,27+,28-,29+,30+,31+,33+,34+,35+,36-,37-,38-,39+,40-,41+/m1/s1

> <PUBCHEM_IUPAC_INCHIKEY>
WDJUZGPOPHTGOT-XUDUSOBPSA-N

> <PUBCHEM_IUPAC_NAME>
3-[(3S,5R,8R,9S,10S,13R,14S,17R)-3-[(2R,4S,5S,6R)-5-[(2S,4S,5S,6R)-5-[(2S,4S,5S,6R)-4,5-dihydroxy-6-methyloxan-2-yl]oxy-4-hydroxy-6-methyloxan-2-yl]oxy-4-hydroxy-6-methyloxan-2-yl]oxy-14-hydroxy-10,13
-dimethyl-1,2,3,4,5,6,7,8,9,11,12,15,16,17-tetradecahydrocyclopenta[a]phenanthren-17-yl]-2H-furan-5-one

> <PUBCHEM_IUPAC_NAME_MARKUP>
3-[(3<I>S</I>,5<I>R</I>,8<I>R</I>,9<I>S</I>,10<I>S</I>,13<I>R</I>,14<I>S</I>,17<I>R</I>)-3-[(2<I>R</I>,4<I>S</I>,5<I>S</I>,6<I>R</I>)-5-[(2<I>S</I>,4<I>S</I>,5<I>S</I>,6<I>R</I>)-5-[(2<I>S</I>,4<I>S</
I>,5<I>S</I>,6<I>R</I>)-4,5-dihydroxy-6-methyloxan-2-yl]oxy-4-hydroxy-6-methyloxan-2-yl]oxy-4-hydroxy-6-methyloxan-2-yl]oxy-14-hydroxy-10,13-dimethyl-1,2,3,4,5,6,7,8,9,11,12,15,16,17-tetradecahydrocyc
lopenta[a]phenanthren-17-yl]-2<I>H</I>-furan-5-one

> <PUBCHEM_IUPAC_OPENEYE_NAME>
3-[(3S,5R,8R,9S,10S,13R,14S,17R)-3-[(2R,4S,5S,6R)-5-[(2S,4S,5S,6R)-5-[(2S,4S,5S,6R)-4,5-dihydroxy-6-methyl-tetrahydropyran-2-yl]oxy-4-hydroxy-6-methyl-tetrahydropyran-2-yl]oxy-4-hydroxy-6-methyl-tetra
hydropyran-2-yl]oxy-14-hydroxy-10,13-dimethyl-1,2,3,4,5,6,7,8,9,11,12,15,16,17-tetradecahydrocyclopenta[a]phenanthren-17-yl]-2H-furan-5-one

> <PUBCHEM_IUPAC_SYSTEMATIC_NAME>
3-[(3S,5R,8R,9S,10S,13R,14S,17R)-10,13-dimethyl-3-[(2R,4S,5S,6R)-6-methyl-5-[(2S,4S,5S,6R)-6-methyl-5-[(2S,4S,5S,6R)-6-methyl-4,5-bis(oxidanyl)oxan-2-yl]oxy-4-oxidanyl-oxan-2-yl]oxy-4-oxidanyl-oxan-2-
yl]oxy-14-oxidanyl-1,2,3,4,5,6,7,8,9,11,12,15,16,17-tetradecahydrocyclopenta[a]phenanthren-17-yl]-2H-furan-5-one

> <PUBCHEM_IUPAC_TRADITIONAL_NAME>
3-[(3S,5R,8R,9S,10S,13R,14S,17R)-3-[(2R,4S,5S,6R)-5-[(2S,4S,5S,6R)-5-[(2S,4S,5S,6R)-4,5-dihydroxy-6-methyl-tetrahydropyran-2-yl]oxy-4-hydroxy-6-methyl-tetrahydropyran-2-yl]oxy-4-hydroxy-6-methyl-tetra
hydropyran-2-yl]oxy-14-hydroxy-10,13-dimethyl-1,2,3,4,5,6,7,8,9,11,12,15,16,17-tetradecahydrocyclopenta[a]phenanthren-17-yl]-2H-furan-5-one

> <PUBCHEM_MOLECULAR_FORMULA>
C41H64O13

> <PUBCHEM_MOLECULAR_WEIGHT>
764.9

> <PUBCHEM_MONOISOTOPIC_WEIGHT>
764.43469209

> <PUBCHEM_OPENEYE_CAN_SMILES>
CC1C(C(CC(O1)OC2C(OC(CC2O)OC3C(OC(CC3O)OC4CCC5(C(C4)CCC6C5CCC7(C6(CCC7C8=CC(=O)OC8)O)C)C)C)C)O)O

> <PUBCHEM_OPENEYE_ISO_SMILES>
C[C@@H]1[C@H]([C@H](C[C@@H](O1)O[C@@H]2[C@H](O[C@H](C[C@@H]2O)O[C@@H]3[C@H](O[C@H](C[C@@H]3O)O[C@H]4CC[C@]5([C@@H](C4)CC[C@@H]6[C@@H]5CC[C@]7([C@@]6(CC[C@@H]7C8=CC(=O)OC8)O)C)C)C)C)O)O

> <PUBCHEM_TOTAL_CHARGE>
0

> <PUBCHEM_XLOGP3>
2.3

> <RelativeEnergy>
12.3042

> <StereoisomerIndex>
1

> <TautomerIndex>
1

> <POSE_NUMBER>
1

> <LibDockScore>
139.0656

> <HotSpots>
24.21,11.07,-17.86,A,15,37
15.61,-6.73,-13.65,A,23,50
13.01,-7.53,-14.86,A,17,52

> <-In-Situ Starting Energy>
-2897.67641

> <-In-Situ Final Energy>
-110.868708

> <In-Situ Gradient>
0.222072771

> <Favorable Total>
16

> <Unfavorable Total>
0

> <Charge Total>
0

> <Hydrophobic Total>
5

> <HydrogenBond Total>
11

> <Other Total>
0

> <Favorable A:LYS6>
0

> <Favorable A:ARG55>
0

> <Favorable A:LEU58>
0

> <Favorable A:LEU61>
0

> <Favorable A:ILE62>
0

> <Favorable A:GLY64>
0

> <Favorable A:SER65>
0

> <Favorable A:TRP66>
1

> <Favorable A:SER69>
5

> <Favorable A:VAL70>
1

> <Favorable A:PRO73>
2

> <Favorable A:ALA74>
0

> <Favorable A:PHE76>
0

> <Favorable A:ALA77>
0

> <Favorable A:THR78>
0

> <Favorable A:GLU79>
0

> <Favorable A:PHE82>
0

> <Favorable A:ARG83>
0

> <Favorable A:LEU85>
0

> <Favorable A:THR86>
0

> <Favorable A:TRP89>
0

> <Favorable A:THR90>
0

> <Favorable A:ASN93>
0

> <Favorable A:HIS94>
0

> <Favorable A:SER96>
0

> <Favorable A:VAL97>
0

> <Favorable A:TRP98>
0

> <Favorable A:PHE140>
0

> <Favorable A:LEU141>
0

> <Favorable A:ASN144>
0

> <Favorable A:ILE148>
0

> <Favorable A:ILE150>
0

> <Favorable A:HIS151>
0

> <Favorable A:ILE152>
0

> <Favorable A:ALA154>
0

> <Favorable A:SER155>
1

> <Favorable A:ILE156>
0

> <Favorable A:GLY158>
0

> <Favorable A:TYR159>
2

> <Favorable A:ARG160>
0

> <Favorable A:ARG161>
0

> <Favorable A:ASN162>
0

> <Favorable A:LYS163>
0

> <Favorable A:SER167>
0

> <Favorable A:ASP168>
1

> <Favorable A:SER169>
0

> <Favorable A:ASN171>
0

> <Favorable A:PHE172>
1

> <Favorable A:THR173>
0

> <Favorable A:ARG174>
0

> <Favorable A:PHE175>
0

> <Favorable A:SER176>
0

> <Favorable A:SER177>
0

> <Favorable A:LEU178>
0

> <Favorable A:ILE179>
0

> <Favorable A:VAL180>
0

> <Favorable A:LEU181>
0

> <Favorable A:SER183>
0

> <Favorable A:THR184>
0

> <Favorable A:PHE186>
0

> <Favorable A:ILE187>
0

> <Favorable A:PHE188>
0

> <Favorable A:ILE189>
0

> <Favorable A:PRO190>
0

> <Favorable A:PHE191>
0

> <Favorable A:TYR240>
0

> <Favorable A:PHE243>
0

> <Favorable A:SER244>
0

> <Favorable A:PHE247>
0

> <Favorable A:PHE248>
0

> <Favorable A:VAL251>
0

> <Favorable A:TRP252>
0

> <Favorable A:SER254>
0

> <Favorable A:GLU255>
0

> <Favorable A:ARG256>
0

> <Favorable A:LEU257>
0

> <Favorable A:GLU258>
0

> <Favorable A:GLU259>
0

> <Favorable A:LEU261>
0

> <Favorable A:ILE262>
1

> <Favorable A:ILE263>
0

> <Favorable A:SER265>
0

> <Favorable A:GLN266>
1

> <Favorable A:MET268>
0

> <Favorable A:GLY269>
0

> <Favorable A:TYR272>
0

> <Favorable A:PRO273>
0

> <Unfavorable A:ARG55>
0

> <Unfavorable A:PRO73>
0

> <Unfavorable A:PHE76>
0

> <Unfavorable A:GLU79>
0

> <Unfavorable A:ARG83>
0

> <Unfavorable A:THR86>
0

> <Unfavorable A:TRP89>
0

> <Unfavorable A:THR90>
0

> <Unfavorable A:ASN93>
0

> <Unfavorable A:TRP98>
0

> <Unfavorable A:ASN144>
0

> <Unfavorable A:SER155>
0

> <Unfavorable A:GLY158>
0

> <Unfavorable A:TYR159>
0

> <Unfavorable A:ASN162>
0

> <Unfavorable A:ASP168>
0

> <Unfavorable A:ASN171>
0

> <Unfavorable A:THR173>
0

> <Unfavorable A:ARG174>
0

> <Unfavorable A:SER183>
0

> <Unfavorable A:THR184>
0

> <Unfavorable A:PHE186>
0

> <Unfavorable A:SER244>
0

> <Unfavorable A:SER254>
0

> <Unfavorable A:GLU255>
0

> <Unfavorable A:SER265>
0

> <Unfavorable A:GLN266>
0

> <Unfavorable A:GLY269>
0

> <Charge A:ARG55>
0

> <Charge A:PHE76>
0

> <Charge A:GLU79>
0

> <Charge A:PHE82>
0

> <Charge A:ARG83>
0

> <Charge A:TRP89>
0

> <Charge A:HIS94>
0

> <Charge A:TRP98>
0

> <Charge A:TYR159>
0

> <Charge A:ARG161>
0

> <Charge A:LYS163>
0

> <Charge A:ASP168>
0

> <Charge A:PHE172>
0

> <Charge A:ARG174>
0

> <Charge A:PHE175>
0

> <Charge A:PHE188>
0

> <Charge A:PHE247>
0

> <Charge A:PHE248>
0

> <Hydrophobic A:LEU58>
0

> <Hydrophobic A:LEU61>
0

> <Hydrophobic A:ILE62>
0

> <Hydrophobic A:TRP66>
0

> <Hydrophobic A:VAL70>
1

> <Hydrophobic A:PRO73>
0

> <Hydrophobic A:ALA74>
0

> <Hydrophobic A:PHE76>
0

> <Hydrophobic A:ALA77>
0

> <Hydrophobic A:THR78>
0

> <Hydrophobic A:PHE82>
0

> <Hydrophobic A:ARG83>
0

> <Hydrophobic A:LEU85>
0

> <Hydrophobic A:TRP89>
0

> <Hydrophobic A:THR90>
0

> <Hydrophobic A:ASN93>
0

> <Hydrophobic A:HIS94>
0

> <Hydrophobic A:VAL97>
0

> <Hydrophobic A:TRP98>
0

> <Hydrophobic A:PHE140>
0

> <Hydrophobic A:LEU141>
0

> <Hydrophobic A:ILE148>
0

> <Hydrophobic A:ILE150>
0

> <Hydrophobic A:HIS151>
0

> <Hydrophobic A:ILE152>
0

> <Hydrophobic A:ALA154>
0

> <Hydrophobic A:SER155>
0

> <Hydrophobic A:ILE156>
0

> <Hydrophobic A:GLY158>
0

> <Hydrophobic A:TYR159>
2

> <Hydrophobic A:ARG160>
0

> <Hydrophobic A:ARG161>
0

> <Hydrophobic A:ASP168>
0

> <Hydrophobic A:ASN171>
0

> <Hydrophobic A:PHE172>
1

> <Hydrophobic A:ARG174>
0

> <Hydrophobic A:PHE175>
0

> <Hydrophobic A:LEU178>
0

> <Hydrophobic A:ILE179>
0

> <Hydrophobic A:VAL180>
0

> <Hydrophobic A:LEU181>
0

> <Hydrophobic A:PHE186>
0

> <Hydrophobic A:ILE187>
0

> <Hydrophobic A:PHE188>
0

> <Hydrophobic A:ILE189>
0

> <Hydrophobic A:PRO190>
0

> <Hydrophobic A:PHE191>
0

> <Hydrophobic A:TYR240>
0

> <Hydrophobic A:PHE243>
0

> <Hydrophobic A:PHE247>
0

> <Hydrophobic A:PHE248>
0

> <Hydrophobic A:VAL251>
0

> <Hydrophobic A:TRP252>
0

> <Hydrophobic A:SER254>
0

> <Hydrophobic A:LEU261>
0

> <Hydrophobic A:ILE262>
1

> <Hydrophobic A:ILE263>
0

> <Hydrophobic A:TYR272>
0

> <Hydrophobic A:PRO273>
0

> <HydrogenBond A:LYS6>
0

> <HydrogenBond A:ARG55>
0

> <HydrogenBond A:GLY64>
0

> <HydrogenBond A:SER65>
0

> <HydrogenBond A:TRP66>
1

> <HydrogenBond A:SER69>
5

> <HydrogenBond A:PRO73>
2

> <HydrogenBond A:ALA74>
0

> <HydrogenBond A:PHE76>
0

> <HydrogenBond A:ALA77>
0

> <HydrogenBond A:THR78>
0

> <HydrogenBond A:GLU79>
0

> <HydrogenBond A:PHE82>
0

> <HydrogenBond A:ARG83>
0

> <HydrogenBond A:LEU85>
0

> <HydrogenBond A:THR86>
0

> <HydrogenBond A:TRP89>
0

> <HydrogenBond A:THR90>
0

> <HydrogenBond A:ASN93>
0

> <HydrogenBond A:HIS94>
0

> <HydrogenBond A:SER96>
0

> <HydrogenBond A:TRP98>
0

> <HydrogenBond A:ASN144>
0

> <HydrogenBond A:HIS151>
0

> <HydrogenBond A:ILE152>
0

> <HydrogenBond A:ALA154>
0

> <HydrogenBond A:SER155>
1

> <HydrogenBond A:ILE156>
0

> <HydrogenBond A:GLY158>
0

> <HydrogenBond A:TYR159>
0

> <HydrogenBond A:ASN162>
0

> <HydrogenBond A:LYS163>
0

> <HydrogenBond A:SER167>
0

> <HydrogenBond A:ASP168>
1

> <HydrogenBond A:SER169>
0

> <HydrogenBond A:ASN171>
0

> <HydrogenBond A:PHE172>
0

> <HydrogenBond A:THR173>
0

> <HydrogenBond A:ARG174>
0

> <HydrogenBond A:PHE175>
0

> <HydrogenBond A:SER176>
0

> <HydrogenBond A:SER177>
0

> <HydrogenBond A:ILE179>
0

> <HydrogenBond A:VAL180>
0

> <HydrogenBond A:SER183>
0

> <HydrogenBond A:THR184>
0

> <HydrogenBond A:PHE186>
0

> <HydrogenBond A:ILE187>
0

> <HydrogenBond A:PRO190>
0

> <HydrogenBond A:TYR240>
0

> <HydrogenBond A:PHE243>
0

> <HydrogenBond A:SER244>
0

> <HydrogenBond A:PHE247>
0

> <HydrogenBond A:VAL251>
0

> <HydrogenBond A:SER254>
0

> <HydrogenBond A:GLU255>
0

> <HydrogenBond A:ARG256>
0

> <HydrogenBond A:LEU257>
0

> <HydrogenBond A:GLU258>
0

> <HydrogenBond A:GLU259>
0

> <HydrogenBond A:ILE262>
0

> <HydrogenBond A:SER265>
0

> <HydrogenBond A:GLN266>
1

> <HydrogenBond A:MET268>
0

> <HydrogenBond A:GLY269>
0

> <HydrogenBond A:PRO273>
0

> <Other A:SER69>
0

> <Other A:TRP89>
0

> <Other A:TYR159>
0

> <Other A:PHE172>
0

> <Other A:SER176>
0

> <Other A:SER265>
0

$$$$
442428
  SciTegic09122300493D

 73 77  0  0  0  0            999 V2000
   13.5473    2.9597   -9.4402 O   0  0  0  1  0  0
   12.8491    5.3363   -6.7512 O   0  0  0  1  0  0
   15.0927    4.3391  -10.4723 O   0  0  0  1  0  0
   12.4950    5.6290   -9.0040 O   0  0  0  1  0  0
   14.2166    1.4342   -7.1686 O   0  0  0  1  0  0
   13.2380    2.3806   -4.6898 O   0  0  0  1  0  0
   14.3108    0.8041  -11.1047 O   0  0  0  1  0  0
   16.6311    0.9852  -11.9059 O   0  0  0  1  0  0
   17.5909    3.6340  -13.1224 O   0  0  0  1  0  0
   13.0190    4.7180   -3.1539 O   0  0  0  1  0  0
    9.2929    2.9878  -11.3980 O   0  0  0  1  0  0
   12.6590    5.4368  -13.6283 O   0  0  0  1  0  0
   10.7527    4.4283  -15.0679 O   0  0  0  1  0  0
   13.0923   -1.8993  -12.2550 O   0  0  0  1  0  0
   13.5957    3.6117   -8.1878 C   0  0  2  1  0  0
   13.3967    2.5827   -7.0874 C   0  0  2  1  0  0
   13.5890    3.2689   -5.7287 C   0  0  1  1  0  0
   14.7640    2.9975  -10.1618 C   0  0  2  1  0  0
   12.5204    4.6853   -7.9577 C   0  0  1  1  0  0
   14.5881    2.1545  -11.4197 C   0  0  1  1  0  0
   12.6972    4.5217   -5.6055 C   0  0  1  1  0  0
   15.8664    2.1226  -12.2669 C   0  0  1  1  0  0
   16.7159    3.3926  -12.0364 C   0  0  2  1  0  0
   15.8195    4.5978  -11.6628 C   0  0  2  1  0  0
   13.0343    5.3893   -4.3854 C   0  0  0  1  0  0
   16.5882    5.8998  -11.4161 C   0  0  0  1  0  0
   11.9914    5.1884  -10.1880 C   0  0  0  1  0  0
   10.8291    4.2758  -10.2549 C   0  0  0  1  0  0
   12.6059    5.5806  -11.3176 C   0  0  0  1  0  0
   10.3316    3.8319  -11.4159 C   0  0  0  1  0  0
   10.9056    4.2755  -12.6846 C   0  0  0  1  0  0
    9.1593    2.1609  -12.5299 C   0  0  1  1  0  0
   12.1295    5.0872  -12.6239 C   0  0  0  1  0  0
    9.1423    3.0147  -13.8086 C   0  0  0  1  0  0
   10.2949    3.9902  -13.8514 C   0  0  0  1  0  0
   10.2774    1.1454  -12.4702 C   0  0  0  1  0  0
   10.5237    0.4861  -11.2715 C   0  0  0  1  0  0
   11.0932    0.8672  -13.5638 C   0  0  0  1  0  0
   11.5153   -0.4765  -11.1920 C   0  0  0  1  0  0
   12.0565   -0.1221  -13.5074 C   0  0  0  1  0  0
   12.2394   -0.8224  -12.3242 C   0  0  0  1  0  0
   15.1354    1.6817   -7.1655 H   0  0
   13.3585    1.4820   -5.0040 H   0  0
   13.6408    0.7862  -10.4243 H   0  0
   16.0126    0.2793  -11.7046 H   0  0
   17.1081    3.9579  -13.8670 H   0  0
   13.4059    3.8715   -3.3355 H   0  0
   11.5051    5.0127  -14.9595 H   0  0
   13.3356   -2.1864  -13.1248 H   0  0
   14.5508    4.1082   -8.0758 H   0  0
   12.3695    2.2188   -7.1708 H   0  0
   14.6325    3.5679   -5.5988 H   0  0
   15.5688    2.5690   -9.5625 H   0  0
   11.5388    4.2427   -7.8164 H   0  0
   13.7690    2.5649  -12.0188 H   0  0
   11.6550    4.2067   -5.5299 H   0  0
   15.5874    2.0278  -13.3203 H   0  0
   17.3574    3.2004  -11.1762 H   0  0
   15.1050    4.7616  -12.4693 H   0  0
   14.0038    5.8815   -4.5076 H   0  0
   12.2620    6.1422   -4.3047 H   0  0
   17.0959    5.8756  -10.4553 H   0  0
   15.9103    6.7524  -11.3842 H   0  0
   17.3365    6.0845  -12.1865 H   0  0
   10.3596    3.9347   -9.3614 H   0  0
   13.4505    6.2427  -11.2685 H   0  0
    8.2190    1.6147  -12.4506 H   0  0
    8.2087    3.5751  -13.8071 H   0  0
    9.1173    2.3941  -14.7032 H   0  0
    9.9325    0.7159  -10.3966 H   0  0
   10.9853    1.4009  -14.4878 H   0  0
   11.6870   -1.0004  -10.2620 H   0  0
   12.6290   -0.3174  -14.4041 H   0  0
  1 15  1  0
  1 18  1  0
  2 19  1  0
  2 21  1  0
  3 18  1  0
  3 24  1  0
  4 19  1  0
  4 27  1  0
  5 16  1  0
  6 17  1  0
  7 20  1  0
  8 22  1  0
  9 23  1  0
 10 25  1  0
 11 30  1  0
 11 32  1  0
 12 33  2  0
 13 35  1  0
 14 41  1  0
 15 16  1  0
 15 19  1  0
 16 17  1  0
 17 21  1  0
 18 20  1  0
 20 22  1  0
 21 25  1  0
 22 23  1  0
 23 24  1  0
 24 26  1  0
 27 28  1  0
 27 29  2  0
 28 30  2  0
 29 33  1  0
 30 31  1  0
 31 33  1  0
 31 35  2  0
 32 34  1  0
 32 36  1  0
 34 35  1  0
 36 37  2  0
 36 38  1  0
 37 39  1  0
 38 40  2  0
 39 41  2  0
 40 41  1  0
  5 42  1  0
  6 43  1  0
  7 44  1  0
  8 45  1  0
  9 46  1  0
 10 47  1  0
 13 48  1  0
 14 49  1  0
 15 50  1  0
 16 51  1  0
 17 52  1  0
 18 53  1  0
 19 54  1  0
 20 55  1  0
 21 56  1  0
 22 57  1  0
 23 58  1  0
 24 59  1  0
 25 60  1  0
 25 61  1  0
 26 62  1  0
 26 63  1  0
 26 64  1  0
 28 65  1  0
 29 66  1  0
 32 67  1  0
 34 68  1  0
 34 69  1  0
 37 70  1  0
 38 71  1  0
 39 72  1  0
 40 73  1  0
M  END
> <Name>
442428

> <Binding Energy>
-72.7849

> <Ligand Energy>
91.3974

> <Protein Energy>
-7801.1566

> <Complex Energy>
-7782.5441

> <Complex Entropy>
-31.4921

> <Protein Entropy>
-31.4717

> <Ligand Entropy>
-20.9342

> <Entropic Energy>
20.9138

> <AbsoluteEnergy>
68.0975

> <ConfNumber>
71

> <Ionization pH>
7.5

> <IonizationIndex>
1

> <MOL_NUMBER>
92

> <NumberOfIonizations>
1

> <NumberOfStereoisomers>
1

> <NumberOfTautomers>
2

> <PUBCHEM_ATOM_DEF_STEREO_COUNT>
11

> <PUBCHEM_ATOM_UDEF_STEREO_COUNT>
0

> <PUBCHEM_BOND_DEF_STEREO_COUNT>
0

> <PUBCHEM_BOND_UDEF_STEREO_COUNT>
0

> <PUBCHEM_CACTVS_TAUTO_COUNT>
18

> <PUBCHEM_COMPONENT_COUNT>
1

> <PUBCHEM_COMPOUND_CID>
442428

> <PUBCHEM_CONFORMER_DIVERSEORDER>
2
204
42
287
179
37
90
206
224
185
285
149
106
105
8
272
253
180
77
290
112
219
33
131
284
93
53
36
154
274
176
211
245
258
157
169
235
4
229
122
200
238
55
256
213
171
57
242
286
186
115
294
225
278
159
3
75
144
78
141
214
175
191
240
32
192
270
79
69
269
228
76
196
207
282
184
43
85
84
266
251
116
120
68
217
267
208
283
13
44
203
178
218
177
280
248
222
161
226
173
249
123
5
198
138
143
48
289
81
188
117
252
83
243
132
124
212
110
156
254
202
121
227
273
139
275
155
67
80
87
113
129
261
268
244
62
89
92
35
174
1
281
263
279
265
148
231
216
210
164
111
162
232
133
237
262
147
264
233
137
291
19
109
102
127
96
151
223
172
73
230
63
49
94
97
250
21
259
140
145
190
128
71
255
220
30
209
39
10
45
166
239
104
247
165
193
146
98
271
199
59
108
257
60
136
292
28
293
181
86
234
125
74
99
16
27
88
47
18
288
160
158
163
6
46
189
187
152
260
9
51
134
40
215
241
114
194
70
107
246
130
95
29
64
72
195
236
197
183
50
65
17
103
170
201
11
41
20
182
61
153
142
118
52
100
7
277
119
168
276
101
15
58
150
66
34
205
82
221
24
56
167
38
26
54
22
31
91
12
23
126
25
135
14

> <PUBCHEM_CONFORMER_ID>
0006C03C00000002

> <PUBCHEM_CONFORMER_RMSD>
1.2

> <PUBCHEM_COORDINATE_TYPE>
2
5
10

> <PUBCHEM_EFFECTIVE_ROTOR_COUNT>
9

> <PUBCHEM_FEATURE_SELFOVERLAP>
127.041

> <PUBCHEM_HEAVY_ATOM_COUNT>
41

> <PUBCHEM_ISOTOPIC_ATOM_COUNT>
0

> <PUBCHEM_MMFF94_ENERGY>
132.6286

> <PUBCHEM_MMFF94_PARTIAL_CHARGES>
54
1 -0.56
10 -0.68
11 -0.36
12 -0.53
13 -0.57
14 -0.53
15 0.28
16 0.28
17 0.28
18 0.56
19 0.56
2 -0.56
20 0.28
21 0.28
22 0.28
23 0.28
24 0.28
25 0.28
27 0.08
28 -0.15
29 -0.15
3 -0.56
30 0.08
31 0.09
32 0.42
33 0.08
34 0.06
35 0.42
36 -0.14
37 -0.15
38 -0.15
39 -0.15
4 -0.36
40 -0.15
41 0.08
5 -0.68
57 0.4
58 0.4
59 0.4
6 -0.68
60 0.4
61 0.4
62 0.4
63 0.15
64 0.15
68 0.15
69 0.15
7 -0.68
70 0.45
71 0.15
72 0.15
73 0.45
8 -0.68
9 -0.68

> <PUBCHEM_PHARMACOPHORE_FEATURES>
25
1 1 acceptor
1 10 acceptor
1 10 donor
1 11 acceptor
1 12 donor
1 13 acceptor
1 14 donor
1 2 acceptor
1 3 acceptor
1 4 acceptor
1 5 acceptor
1 5 donor
1 6 acceptor
1 6 donor
1 7 acceptor
1 7 donor
1 8 acceptor
1 8 donor
1 9 acceptor
1 9 donor
6 11 30 31 32 34 35 rings
6 2 15 16 17 19 21 rings
6 27 28 29 30 31 33 rings
6 3 18 20 22 23 24 rings
6 36 37 38 39 40 41 rings

> <PUBCHEM_SHAPE_FINGERPRINT>
10169797 241 18272365344414428682
10190108 129 18272654601835658688
10985338 15 17686065294177174668
11135926 11 18199453537095121272
11399510 152 18270403922991938265
12342043 65 18187080641893431351
13673619 4 18186524301905111151
13782708 43 18186521012408977619
14017579 30 18267888111560297129
14950920 106 18272937163401288099
15324884 4 17896854712694545973
15392192 104 17901115432052656867
15776043 110 18059585667272370003
19246450 95 17630889296601742833
21796203 349 18130497566690458706
21814621 53 18409731755904715273
22033318 11 17203344290361907915
2303208 19 18186518804595145499
249057 25 16845564362314792349
2748736 6 13326575104000004283
394071 54 17846212259370222326
42626532 9 18261103037662794901
4408954 64 18125469460860566321
563151 74 18057604480420737001
6201320 77 18263088712786114767
6700243 42 17313096415443232277
86090 222 18114470023456089627

> <PUBCHEM_SHAPE_MULTIPOLES>
761.59
18.58
5.41
3.78
20.98
2.05
2.52
-19.18
-14.45
-9.18
-3.49
5.14
0.75
6.23

> <PUBCHEM_SHAPE_SELFOVERLAP>
1647.83

> <PUBCHEM_SHAPE_VOLUME>
411.2

> <RelativeEnergy>
17.5195

> <StereoisomerIndex>
1

> <TautomerIndex>
2

> <POSE_NUMBER>
2

> <LibDockScore>
120.1801

> <HotSpots>
13.41,5.07,-3.25,A,44,25
16.61,6.47,-11.46,A,30,26
9.21,3.67,-12.86,A,26,34

> <-In-Situ Starting Energy>
-609.881287

> <-In-Situ Final Energy>
-35.728549

> <In-Situ Gradient>
0.0009287229033

> <Favorable Total>
7

> <Unfavorable Total>
0

> <Charge Total>
0

> <Hydrophobic Total>
4

> <HydrogenBond Total>
3

> <Other Total>
0

> <Favorable A:LYS6>
0

> <Favorable A:ARG55>
0

> <Favorable A:LEU58>
0

> <Favorable A:LEU61>
0

> <Favorable A:ILE62>
0

> <Favorable A:GLY64>
0

> <Favorable A:SER65>
0

> <Favorable A:TRP66>
0

> <Favorable A:SER69>
0

> <Favorable A:VAL70>
0

> <Favorable A:PRO73>
0

> <Favorable A:ALA74>
0

> <Favorable A:PHE76>
0

> <Favorable A:ALA77>
0

> <Favorable A:THR78>
0

> <Favorable A:GLU79>
0

> <Favorable A:PHE82>
1

> <Favorable A:ARG83>
0

> <Favorable A:LEU85>
1

> <Favorable A:THR86>
0

> <Favorable A:TRP89>
1

> <Favorable A:THR90>
0

> <Favorable A:ASN93>
0

> <Favorable A:HIS94>
0

> <Favorable A:SER96>
0

> <Favorable A:VAL97>
0

> <Favorable A:TRP98>
0

> <Favorable A:PHE140>
0

> <Favorable A:LEU141>
0

> <Favorable A:ASN144>
0

> <Favorable A:ILE148>
0

> <Favorable A:ILE150>
0

> <Favorable A:HIS151>
0

> <Favorable A:ILE152>
0

> <Favorable A:ALA154>
0

> <Favorable A:SER155>
0

> <Favorable A:ILE156>
0

> <Favorable A:GLY158>
0

> <Favorable A:TYR159>
0

> <Favorable A:ARG160>
0

> <Favorable A:ARG161>
0

> <Favorable A:ASN162>
0

> <Favorable A:LYS163>
0

> <Favorable A:SER167>
0

> <Favorable A:ASP168>
0

> <Favorable A:SER169>
0

> <Favorable A:ASN171>
0

> <Favorable A:PHE172>
0

> <Favorable A:THR173>
0

> <Favorable A:ARG174>
0

> <Favorable A:PHE175>
0

> <Favorable A:SER176>
0

> <Favorable A:SER177>
0

> <Favorable A:LEU178>
0

> <Favorable A:ILE179>
1

> <Favorable A:VAL180>
1

> <Favorable A:LEU181>
0

> <Favorable A:SER183>
0

> <Favorable A:THR184>
1

> <Favorable A:PHE186>
0

> <Favorable A:ILE187>
0

> <Favorable A:PHE188>
0

> <Favorable A:ILE189>
0

> <Favorable A:PRO190>
0

> <Favorable A:PHE191>
0

> <Favorable A:TYR240>
0

> <Favorable A:PHE243>
0

> <Favorable A:SER244>
0

> <Favorable A:PHE247>
0

> <Favorable A:PHE248>
0

> <Favorable A:VAL251>
0

> <Favorable A:TRP252>
0

> <Favorable A:SER254>
0

> <Favorable A:GLU255>
0

> <Favorable A:ARG256>
0

> <Favorable A:LEU257>
0

> <Favorable A:GLU258>
0

> <Favorable A:GLU259>
0

> <Favorable A:LEU261>
0

> <Favorable A:ILE262>
0

> <Favorable A:ILE263>
0

> <Favorable A:SER265>
0

> <Favorable A:GLN266>
1

> <Favorable A:MET268>
0

> <Favorable A:GLY269>
0

> <Favorable A:TYR272>
0

> <Favorable A:PRO273>
0

> <Unfavorable A:ARG55>
0

> <Unfavorable A:PRO73>
0

> <Unfavorable A:PHE76>
0

> <Unfavorable A:GLU79>
0

> <Unfavorable A:ARG83>
0

> <Unfavorable A:THR86>
0

> <Unfavorable A:TRP89>
0

> <Unfavorable A:THR90>
0

> <Unfavorable A:ASN93>
0

> <Unfavorable A:TRP98>
0

> <Unfavorable A:ASN144>
0

> <Unfavorable A:SER155>
0

> <Unfavorable A:GLY158>
0

> <Unfavorable A:TYR159>
0

> <Unfavorable A:ASN162>
0

> <Unfavorable A:ASP168>
0

> <Unfavorable A:ASN171>
0

> <Unfavorable A:THR173>
0

> <Unfavorable A:ARG174>
0

> <Unfavorable A:SER183>
0

> <Unfavorable A:THR184>
0

> <Unfavorable A:PHE186>
0

> <Unfavorable A:SER244>
0

> <Unfavorable A:SER254>
0

> <Unfavorable A:GLU255>
0

> <Unfavorable A:SER265>
0

> <Unfavorable A:GLN266>
0

> <Unfavorable A:GLY269>
0

> <Charge A:ARG55>
0

> <Charge A:PHE76>
0

> <Charge A:GLU79>
0

> <Charge A:PHE82>
0

> <Charge A:ARG83>
0

> <Charge A:TRP89>
0

> <Charge A:HIS94>
0

> <Charge A:TRP98>
0

> <Charge A:TYR159>
0

> <Charge A:ARG161>
0

> <Charge A:LYS163>
0

> <Charge A:ASP168>
0

> <Charge A:PHE172>
0

> <Charge A:ARG174>
0

> <Charge A:PHE175>
0

> <Charge A:PHE188>
0

> <Charge A:PHE247>
0

> <Charge A:PHE248>
0

> <Hydrophobic A:LEU58>
0

> <Hydrophobic A:LEU61>
0

> <Hydrophobic A:ILE62>
0

> <Hydrophobic A:TRP66>
0

> <Hydrophobic A:VAL70>
0

> <Hydrophobic A:PRO73>
0

> <Hydrophobic A:ALA74>
0

> <Hydrophobic A:PHE76>
0

> <Hydrophobic A:ALA77>
0

> <Hydrophobic A:THR78>
0

> <Hydrophobic A:PHE82>
1

> <Hydrophobic A:ARG83>
0

> <Hydrophobic A:LEU85>
1

> <Hydrophobic A:TRP89>
1

> <Hydrophobic A:THR90>
0

> <Hydrophobic A:ASN93>
0

> <Hydrophobic A:HIS94>
0

> <Hydrophobic A:VAL97>
0

> <Hydrophobic A:TRP98>
0

> <Hydrophobic A:PHE140>
0

> <Hydrophobic A:LEU141>
0

> <Hydrophobic A:ILE148>
0

> <Hydrophobic A:ILE150>
0

> <Hydrophobic A:HIS151>
0

> <Hydrophobic A:ILE152>
0

> <Hydrophobic A:ALA154>
0

> <Hydrophobic A:SER155>
0

> <Hydrophobic A:ILE156>
0

> <Hydrophobic A:GLY158>
0

> <Hydrophobic A:TYR159>
0

> <Hydrophobic A:ARG160>
0

> <Hydrophobic A:ARG161>
0

> <Hydrophobic A:ASP168>
0

> <Hydrophobic A:ASN171>
0

> <Hydrophobic A:PHE172>
0

> <Hydrophobic A:ARG174>
0

> <Hydrophobic A:PHE175>
0

> <Hydrophobic A:LEU178>
0

> <Hydrophobic A:ILE179>
1

> <Hydrophobic A:VAL180>
0

> <Hydrophobic A:LEU181>
0

> <Hydrophobic A:PHE186>
0

> <Hydrophobic A:ILE187>
0

> <Hydrophobic A:PHE188>
0

> <Hydrophobic A:ILE189>
0

> <Hydrophobic A:PRO190>
0

> <Hydrophobic A:PHE191>
0

> <Hydrophobic A:TYR240>
0

> <Hydrophobic A:PHE243>
0

> <Hydrophobic A:PHE247>
0

> <Hydrophobic A:PHE248>
0

> <Hydrophobic A:VAL251>
0

> <Hydrophobic A:TRP252>
0

> <Hydrophobic A:SER254>
0

> <Hydrophobic A:LEU261>
0

> <Hydrophobic A:ILE262>
0

> <Hydrophobic A:ILE263>
0

> <Hydrophobic A:TYR272>
0

> <Hydrophobic A:PRO273>
0

> <HydrogenBond A:LYS6>
0

> <HydrogenBond A:ARG55>
0

> <HydrogenBond A:GLY64>
0

> <HydrogenBond A:SER65>
0

> <HydrogenBond A:TRP66>
0

> <HydrogenBond A:SER69>
0

> <HydrogenBond A:PRO73>
0

> <HydrogenBond A:ALA74>
0

> <HydrogenBond A:PHE76>
0

> <HydrogenBond A:ALA77>
0

> <HydrogenBond A:THR78>
0

> <HydrogenBond A:GLU79>
0

> <HydrogenBond A:PHE82>
0

> <HydrogenBond A:ARG83>
0

> <HydrogenBond A:LEU85>
0

> <HydrogenBond A:THR86>
0

> <HydrogenBond A:TRP89>
0

> <HydrogenBond A:THR90>
0

> <HydrogenBond A:ASN93>
0

> <HydrogenBond A:HIS94>
0

> <HydrogenBond A:SER96>
0

> <HydrogenBond A:TRP98>
0

> <HydrogenBond A:ASN144>
0

> <HydrogenBond A:HIS151>
0

> <HydrogenBond A:ILE152>
0

> <HydrogenBond A:ALA154>
0

> <HydrogenBond A:SER155>
0

> <HydrogenBond A:ILE156>
0

> <HydrogenBond A:GLY158>
0

> <HydrogenBond A:TYR159>
0

> <HydrogenBond A:ASN162>
0

> <HydrogenBond A:LYS163>
0

> <HydrogenBond A:SER167>
0

> <HydrogenBond A:ASP168>
0

> <HydrogenBond A:SER169>
0

> <HydrogenBond A:ASN171>
0

> <HydrogenBond A:PHE172>
0

> <HydrogenBond A:THR173>
0

> <HydrogenBond A:ARG174>
0

> <HydrogenBond A:PHE175>
0

> <HydrogenBond A:SER176>
0

> <HydrogenBond A:SER177>
0

> <HydrogenBond A:ILE179>
0

> <HydrogenBond A:VAL180>
1

> <HydrogenBond A:SER183>
0

> <HydrogenBond A:THR184>
1

> <HydrogenBond A:PHE186>
0

> <HydrogenBond A:ILE187>
0

> <HydrogenBond A:PRO190>
0

> <HydrogenBond A:TYR240>
0

> <HydrogenBond A:PHE243>
0

> <HydrogenBond A:SER244>
0

> <HydrogenBond A:PHE247>
0

> <HydrogenBond A:VAL251>
0

> <HydrogenBond A:SER254>
0

> <HydrogenBond A:GLU255>
0

> <HydrogenBond A:ARG256>
0

> <HydrogenBond A:LEU257>
0

> <HydrogenBond A:GLU258>
0

> <HydrogenBond A:GLU259>
0

> <HydrogenBond A:ILE262>
0

> <HydrogenBond A:SER265>
0

> <HydrogenBond A:GLN266>
1

> <HydrogenBond A:MET268>
0

> <HydrogenBond A:GLY269>
0

> <HydrogenBond A:PRO273>
0

> <Other A:SER69>
0

> <Other A:TRP89>
0

> <Other A:TYR159>
0

> <Other A:PHE172>
0

> <Other A:SER176>
0

> <Other A:SER265>
0

$$$$
442971
  SciTegic09122300493D

133141  0  0  0  0            999 V2000
   23.4988   -2.3400  -11.9798 O   0  0  0  1  0  0
   22.5508   -3.3533  -13.8060 O   0  0  0  1  0  0
   26.1528   -2.9997  -13.3354 O   0  0  0  1  0  0
   25.9986   -5.3268  -14.8842 O   0  0  0  1  0  0
   23.6759   -5.4814  -16.5183 O   0  0  0  1  0  0
   26.2620   -1.1912  -11.8838 O   0  0  0  1  0  0
   20.8964   -4.6345  -16.7654 O   0  0  0  1  0  0
   23.7431   -7.7531  -16.1814 O   0  0  0  1  0  0
   28.4244   -4.0551  -11.6207 O   0  0  0  1  0  0
   29.8519   -2.4165  -10.3693 O   0  0  0  1  0  0
   21.9205   -8.0782  -18.5050 O   0  0  0  1  0  0
   28.3534   -0.5524   -8.9769 O   0  0  0  1  0  0
   23.6848   -7.5784  -20.2976 O   0  0  0  1  0  0
   26.0165   -8.6443  -18.8928 O   0  0  0  1  0  0
   13.0514    2.3268  -11.6822 N   0  0  0  1  0  0
   15.7649    1.0562  -10.0026 C   0  0  2  1  0  0
   14.2686    0.7886  -10.3107 C   0  0  2  1  0  0
   16.3601    0.8494  -11.3979 C   0  0  2  1  0  0
   14.0492    1.2594  -11.7638 C   0  0  2  1  0  0
   17.8869    1.0465  -11.4857 C   0  0  1  1  0  0
   15.4321    1.6417  -12.3148 C   0  0  0  1  0  0
   13.1866    1.4969   -9.4782 C   0  0  1  1  0  0
   18.5375    0.0347  -10.5132 C   0  0  2  1  0  0
   16.4104    0.0322   -9.0575 C   0  0  0  1  0  0
   12.1968    1.9655  -10.5480 C   0  0  1  1  0  0
   17.9475    0.1490   -9.0841 C   0  0  0  1  0  0
   20.0951   -0.0331  -10.5561 C   0  0  2  1  0  0
   16.0074    2.4908   -9.4748 C   0  0  0  1  0  0
   18.3490    0.8011  -12.9305 C   0  0  0  1  0  0
   11.3070    3.1510  -10.1620 C   0  0  0  1  0  0
   12.2794    2.6550  -12.8824 C   0  0  0  1  0  0
   12.5514    0.5858   -8.4202 C   0  0  0  1  0  0
   20.5732    0.0466  -12.0001 C   0  0  0  1  0  0
   11.3746    3.8642  -12.5933 C   0  0  2  1  0  0
   20.5325   -1.3639   -9.8804 C   0  0  0  1  0  0
   10.4728    3.5908  -11.3754 C   0  0  0  1  0  0
   19.7720    0.3383  -13.0409 C   0  0  0  1  0  0
   20.7256    1.1494   -9.7976 C   0  0  0  1  0  0
   21.9801   -0.4427  -12.2651 C   0  0  0  1  0  0
   21.9872   -1.7576  -10.1519 C   0  0  0  1  0  0
   22.2104   -1.8301  -11.6587 C   0  0  2  1  0  0
   10.5563    4.2678  -13.8249 C   0  0  0  1  0  0
   23.7198   -2.7076  -13.3361 C   0  0  2  1  0  0
   24.9155   -3.6738  -13.4439 C   0  0  1  1  0  0
   24.9537   -4.3716  -14.8166 C   0  0  2  1  0  0
   22.5404   -3.8333  -15.1324 C   0  0  1  1  0  0
   23.5882   -4.9564  -15.2053 C   0  0  1  1  0  0
   21.0999   -4.2917  -15.3999 C   0  0  0  1  0  0
   26.5696   -2.5574  -12.0653 C   0  0  2  1  0  0
   28.0975   -2.7317  -12.0171 C   0  0  1  1  0  0
   22.9812   -6.6943  -16.7281 C   0  0  2  1  0  0
   28.7244   -1.8081  -10.9657 C   0  0  1  1  0  0
   26.5491   -0.6591  -10.5961 C   0  0  2  1  0  0
   22.7023   -6.9230  -18.2267 C   0  0  1  1  0  0
   27.7078   -1.4037   -9.9016 C   0  0  2  1  0  0
   24.0070   -7.2146  -18.9710 C   0  0  1  1  0  0
   25.0086   -7.9560  -16.7791 C   0  0  2  1  0  0
   24.7930   -8.3336  -18.2531 C   0  0  2  1  0  0
   25.2733   -0.6499   -9.7612 C   0  0  0  1  0  0
   25.7269   -9.0610  -16.0019 C   0  0  0  1  0  0
   25.7981   -6.0587  -14.3150 H   0  0
   20.0346   -5.0306  -16.8994 H   0  0
   28.0779   -4.6634  -12.2710 H   0  0
   29.6810   -3.3593  -10.3732 H   0  0
   21.0807   -8.0335  -18.0353 H   0  0
   29.1453   -0.9952   -8.6764 H   0  0
   22.9734   -8.2153  -20.2264 H   0  0
   26.5151   -7.8489  -19.0294 H   0  0
   14.0921   -0.2882  -10.2941 H   0  0
   16.1911   -0.1984  -11.6617 H   0  0
   13.6217    0.4405  -12.3456 H   0  0
   18.1695    2.0590  -11.1980 H   0  0
   15.5449    1.3710  -13.3644 H   0  0
   15.6145    2.7121  -12.2223 H   0  0
   13.5813    2.3831   -8.9874 H   0  0
   18.2101   -0.9228  -10.9001 H   0  0
   16.0394    0.1678   -8.0411 H   0  0
   16.1233   -0.9769   -9.3518 H   0  0
   11.5726    1.1249  -10.8602 H   0  0
   18.3543   -0.6306   -8.4444 H   0  0
   18.2466    1.0925   -8.6296 H   0  0
   15.6782    2.5875   -8.4406 H   0  0
   15.4713    3.2372  -10.0608 H   0  0
   17.0593    2.7685   -9.4871 H   0  0
   17.7227    0.0389  -13.3953 H   0  0
   18.2116    1.7104  -13.5166 H   0  0
   10.6556    2.8799   -9.3318 H   0  0
   11.9254    3.9820   -9.8212 H   0  0
   12.9815    2.8795  -13.6862 H   0  0
   11.6978    1.7802  -13.1770 H   0  0
   13.2964    0.2459   -7.7003 H   0  0
   12.1018   -0.2983   -8.8729 H   0  0
   11.7706    1.1109   -7.8704 H   0  0
   12.0291    4.6949  -12.3326 H   0  0
   19.9011   -2.1816  -10.2230 H   0  0
   20.3826   -1.3108   -8.8030 H   0  0
    9.8964    4.4820  -11.1269 H   0  0
    9.7513    2.8102  -11.6195 H   0  0
   20.1527    0.2975  -14.0445 H   0  0
   20.4831    1.1245   -8.7354 H   0  0
   20.3805    2.1031  -10.1976 H   0  0
   21.8129    1.1396   -9.8700 H   0  0
   22.1485   -0.5040  -13.3395 H   0  0
   22.7027    0.2772  -11.8814 H   0  0
   22.2034   -2.7231   -9.6943 H   0  0
   22.6513   -1.0363   -9.6832 H   0  0
   21.4441   -2.5110  -12.0302 H   0  0
    9.9144    3.4501  -14.1534 H   0  0
   11.2039    4.5430  -14.6582 H   0  0
    9.9178    5.1221  -13.6042 H   0  0
   23.9064   -1.8145  -13.9336 H   0  0
   24.8252   -4.4229  -12.6564 H   0  0
   25.2009   -3.6120  -15.5597 H   0  0
   22.7966   -3.0240  -15.8174 H   0  0
   23.3122   -5.7396  -14.4960 H   0  0
   20.8739   -5.1329  -14.7388 H   0  0
   20.4207   -3.4770  -15.1316 H   0  0
   26.0901   -3.1431  -11.2773 H   0  0
   28.5490   -2.5027  -12.9891 H   0  0
   22.0339   -6.6500  -16.2101 H   0  0
   29.0751   -0.9009  -11.4620 H   0  0
   26.8614    0.3727  -10.7435 H   0  0
   22.2190   -6.0418  -18.6602 H   0  0
   27.3174   -2.2862   -9.3819 H   0  0
   24.5916   -6.2940  -19.0107 H   0  0
   25.5963   -7.0400  -16.7152 H   0  0
   24.2006   -9.2503  -18.2680 H   0  0
   24.8857   -1.6583   -9.6192 H   0  0
   24.5097   -0.0490  -10.2530 H   0  0
   25.4569   -0.2177   -8.7793 H   0  0
   25.1633   -9.9927  -16.0434 H   0  0
   25.8443   -8.7893  -14.9535 H   0  0
   26.7184   -9.2499  -16.4137 H   0  0
  1 41  1  0
  1 43  1  0
  2 43  1  0
  2 46  1  0
  3 44  1  0
  3 49  1  0
  4 45  1  0
  5 47  1  0
  5 51  1  0
  6 49  1  0
  6 53  1  0
  7 48  1  0
  8 51  1  0
  8 57  1  0
  9 50  1  0
 10 52  1  0
 11 54  1  0
 12 55  1  0
 13 56  1  0
 14 58  1  0
 15 19  1  0
 15 25  1  0
 15 31  1  0
 16 17  1  0
 16 18  1  0
 16 24  1  0
 16 28  1  0
 17 19  1  0
 17 22  1  0
 18 20  1  0
 18 21  1  0
 19 21  1  0
 20 23  1  0
 20 29  1  0
 22 25  1  0
 22 32  1  0
 23 26  1  0
 23 27  1  0
 24 26  1  0
 25 30  1  0
 27 33  1  0
 27 35  1  0
 27 38  1  0
 29 37  1  0
 30 36  1  0
 31 34  1  0
 33 37  2  0
 33 39  1  0
 34 36  1  0
 34 42  1  0
 35 40  1  0
 39 41  1  0
 40 41  1  0
 43 44  1  0
 44 45  1  0
 45 47  1  0
 46 47  1  0
 46 48  1  0
 49 50  1  0
 50 52  1  0
 51 54  1  0
 52 55  1  0
 53 55  1  0
 53 59  1  0
 54 56  1  0
 56 58  1  0
 57 58  1  0
 57 60  1  0
  4 61  1  0
  7 62  1  0
  9 63  1  0
 10 64  1  0
 11 65  1  0
 12 66  1  0
 13 67  1  0
 14 68  1  0
 17 69  1  0
 18 70  1  0
 19 71  1  0
 20 72  1  0
 21 73  1  0
 21 74  1  0
 22 75  1  0
 23 76  1  0
 24 77  1  0
 24 78  1  0
 25 79  1  0
 26 80  1  0
 26 81  1  0
 28 82  1  0
 28 83  1  0
 28 84  1  0
 29 85  1  0
 29 86  1  0
 30 87  1  0
 30 88  1  0
 31 89  1  0
 31 90  1  0
 32 91  1  0
 32 92  1  0
 32 93  1  0
 34 94  1  0
 35 95  1  0
 35 96  1  0
 36 97  1  0
 36 98  1  0
 37 99  1  0
 38100  1  0
 38101  1  0
 38102  1  0
 39103  1  0
 39104  1  0
 40105  1  0
 40106  1  0
 41107  1  0
 42108  1  0
 42109  1  0
 42110  1  0
 43111  1  0
 44112  1  0
 45113  1  0
 46114  1  0
 47115  1  0
 48116  1  0
 48117  1  0
 49118  1  0
 50119  1  0
 51120  1  0
 52121  1  0
 53122  1  0
 54123  1  0
 55124  1  0
 56125  1  0
 57126  1  0
 58127  1  0
 59128  1  0
 59129  1  0
 59130  1  0
 60131  1  0
 60132  1  0
 60133  1  0
M  END
> <Name>
442971

> <Binding Energy>
-74.6484

> <Ligand Energy>
144.9965

> <Protein Energy>
-7801.1566

> <Complex Energy>
-7730.8085

> <Complex Entropy>
-31.5129

> <Protein Entropy>
-31.4717

> <Ligand Entropy>
-22.4445

> <Entropic Energy>
22.4032

> <AbsoluteEnergy>
84.7856

> <ConfNumber>
58

> <Ionization pH>
7.54_D

> <IonizationIndex>
2

> <MOL_NUMBER>
98

> <NumberOfIonizations>
2

> <NumberOfStereoisomers>
2

> <NumberOfTautomers>
1

> <PUBCHEM_ATOM_DEF_STEREO_COUNT>
26

> <PUBCHEM_ATOM_UDEF_STEREO_COUNT>
0

> <PUBCHEM_BONDANNOTATIONS>
41  1  5
43  1  5
52  10  5
54  11  6
55  12  6
56  13  6
58  14  5
16  28  5
17  61  6
18  62  6
19  63  6
20  64  5
22  32  6
23  68  6
25  71  6
27  38  5
44  3  6
49  3  6
34  42  6
45  4  5
46  48  5
47  5  6
51  5  5
53  59  5
57  60  6
50  9  5

> <PUBCHEM_BOND_DEF_STEREO_COUNT>
0

> <PUBCHEM_BOND_UDEF_STEREO_COUNT>
0

> <PUBCHEM_CACTVS_COMPLEXITY>
1570

> <PUBCHEM_CACTVS_HBOND_ACCEPTOR>
15

> <PUBCHEM_CACTVS_HBOND_DONOR>
8

> <PUBCHEM_CACTVS_ROTATABLE_BOND>
7

> <PUBCHEM_CACTVS_SUBSKEYS>
AAADcfB+PAAAAAAAAAAAAAAAAAAAAeIAAAA8aJEiAAAWAHiAAAAAHgAACAAADzzxgAcCCAMABgCAAiBCAAAAAAAgAAAACAAIAAgREAIAgQAmQAAFwACPAAPQ4PwPgAAAAAAAAADAAAQAACAAASAACQAAAA==

> <PUBCHEM_CACTVS_TAUTO_COUNT>
1

> <PUBCHEM_CACTVS_TPSA>
221

> <PUBCHEM_COMPONENT_COUNT>
1

> <PUBCHEM_COMPOUND_CANONICALIZED>
1

> <PUBCHEM_COMPOUND_CID>
442971

> <PUBCHEM_COORDINATE_TYPE>
1
5
255

> <PUBCHEM_EXACT_MASS>
851.503106

> <PUBCHEM_HEAVY_ATOM_COUNT>
60

> <PUBCHEM_ISOTOPIC_ATOM_COUNT>
0

> <PUBCHEM_IUPAC_CAS_NAME>
(2S,3R,4R,5R,6S)-2-[[(2R,3S,4S,5R,6R)-4-hydroxy-2-(hydroxymethyl)-6-[[(1S,2S,7S,10R,11S,14S,15R,16S,17R,20S,23S)-10,14,16,20-tetramethyl-22-azahexacyclo[12.10.0.02,11.05,10.015,23.017,22]tetracos-4-en
-7-yl]oxy]-5-[[(2S,3R,4R,5R,6S)-3,4,5-trihydroxy-6-methyl-2-oxanyl]oxy]-3-oxanyl]oxy]-6-methyloxane-3,4,5-triol

> <PUBCHEM_IUPAC_INCHI>
InChI=1S/C45H73NO14/c1-19-7-10-28-20(2)31-29(46(28)17-19)16-27-25-9-8-23-15-24(11-13-44(23,5)26(25)12-14-45(27,31)6)57-43-40(60-42-37(53)35(51)33(49)22(4)56-42)38(54)39(30(18-47)58-43)59-41-36(52)34(5
0)32(48)21(3)55-41/h8,19-22,24-43,47-54H,7,9-18H2,1-6H3/t19-,20+,21-,22-,24-,25+,26-,27-,28+,29-,30+,31-,32-,33-,34+,35+,36+,37+,38-,39+,40+,41-,42-,43+,44-,45-/m0/s1

> <PUBCHEM_IUPAC_INCHIKEY>
TYNQWWGVEGFKRU-AJDPQWBVSA-N

> <PUBCHEM_IUPAC_NAME>
(2S,3R,4R,5R,6S)-2-[(2R,3S,4S,5R,6R)-4-hydroxy-2-(hydroxymethyl)-6-[[(1S,2S,7S,10R,11S,14S,15R,16S,17R,20S,23S)-10,14,16,20-tetramethyl-22-azahexacyclo[12.10.0.02,11.05,10.015,23.017,22]tetracos-4-en-
7-yl]oxy]-5-[(2S,3R,4R,5R,6S)-3,4,5-trihydroxy-6-methyloxan-2-yl]oxyoxan-3-yl]oxy-6-methyloxane-3,4,5-triol

> <PUBCHEM_IUPAC_NAME_MARKUP>
(2<I>S</I>,3<I>R</I>,4<I>R</I>,5<I>R</I>,6<I>S</I>)-2-[(2<I>R</I>,3<I>S</I>,4<I>S</I>,5<I>R</I>,6<I>R</I>)-4-hydroxy-2-(hydroxymethyl)-6-[[(1<I>S</I>,2<I>S</I>,7<I>S</I>,10<I>R</I>,11<I>S</I>,14<I>S</
I>,15<I>R</I>,16<I>S</I>,17<I>R</I>,20<I>S</I>,23<I>S</I>)-10,14,16,20-tetramethyl-22-azahexacyclo[12.10.0.0<SUP>2,11</SUP>.0<SUP>5,10</SUP>.0<SUP>15,23</SUP>.0<SUP>17,22</SUP>]tetracos-4-en-7-yl]oxy]
-5-[(2<I>S</I>,3<I>R</I>,4<I>R</I>,5<I>R</I>,6<I>S</I>)-3,4,5-trihydroxy-6-methyloxan-2-yl]oxyoxan-3-yl]oxy-6-methyloxane-3,4,5-triol

> <PUBCHEM_IUPAC_OPENEYE_NAME>
(2S,3R,4R,5R,6S)-2-[(2R,3S,4S,5R,6R)-4-hydroxy-2-(hydroxymethyl)-6-[[(1S,2S,7S,10R,11S,14S,15R,16S,17R,20S,23S)-10,14,16,20-tetramethyl-22-azahexacyclo[12.10.0.02,11.05,10.015,23.017,22]tetracos-4-en-
7-yl]oxy]-5-[(2S,3R,4R,5R,6S)-3,4,5-trihydroxy-6-methyl-tetrahydropyran-2-yl]oxy-tetrahydropyran-3-yl]oxy-6-methyl-tetrahydropyran-3,4,5-triol

> <PUBCHEM_IUPAC_SYSTEMATIC_NAME>
(2S,3R,4R,5R,6S)-2-[(2R,3S,4S,5R,6R)-2-(hydroxymethyl)-5-[(2S,3R,4R,5R,6S)-6-methyl-3,4,5-tris(oxidanyl)oxan-2-yl]oxy-4-oxidanyl-6-[[(1S,2S,7S,10R,11S,14S,15R,16S,17R,20S,23S)-10,14,16,20-tetramethyl-
22-azahexacyclo[12.10.0.02,11.05,10.015,23.017,22]tetracos-4-en-7-yl]oxy]oxan-3-yl]oxy-6-methyl-oxane-3,4,5-triol

> <PUBCHEM_IUPAC_TRADITIONAL_NAME>
(2S,3R,4R,5R,6S)-2-[(2R,3S,4S,5R,6R)-4-hydroxy-2-methylol-6-[[(1S,2S,7S,10R,11S,14S,15R,16S,17R,20S,23S)-10,14,16,20-tetramethyl-22-azahexacyclo[12.10.0.02,11.05,10.015,23.017,22]tetracos-4-en-7-yl]ox
y]-5-[(2S,3R,4R,5R,6S)-3,4,5-trihydroxy-6-methyl-tetrahydropyran-2-yl]oxy-tetrahydropyran-3-yl]oxy-6-methyl-tetrahydropyran-3,4,5-triol

> <PUBCHEM_MOLECULAR_FORMULA>
C45H73NO14

> <PUBCHEM_MOLECULAR_WEIGHT>
852.1

> <PUBCHEM_MONOISOTOPIC_WEIGHT>
851.503106

> <PUBCHEM_OPENEYE_CAN_SMILES>
CC1CCC2C(C3C(N2C1)CC4C3(CCC5C4CC=C6C5(CCC(C6)OC7C(C(C(C(O7)CO)OC8C(C(C(C(O8)C)O)O)O)O)OC9C(C(C(C(O9)C)O)O)O)C)C)C

> <PUBCHEM_OPENEYE_ISO_SMILES>
C[C@H]1CC[C@@H]2[C@H]([C@H]3[C@@H](N2C1)C[C@@H]4[C@@]3(CC[C@H]5[C@H]4CC=C6[C@@]5(CC[C@@H](C6)O[C@H]7[C@@H]([C@H]([C@@H]([C@H](O7)CO)O[C@H]8[C@@H]([C@@H]([C@H]([C@@H](O8)C)O)O)O)O)O[C@H]9[C@@H]([C@@H](
[C@H]([C@@H](O9)C)O)O)O)C)C)C

> <PUBCHEM_TOTAL_CHARGE>
0

> <PUBCHEM_XLOGP3_AA>
1.8

> <RelativeEnergy>
18.4294

> <StereoisomerIndex>
2

> <TautomerIndex>
1

> <POSE_NUMBER>
3

> <LibDockScore>
103.5796

> <HotSpots>
24.21,-1.73,-8.05,P,38,12
9.21,3.67,-12.86,A,26,30
11.21,4.87,-14.65,A,18,31

> <-In-Situ Starting Energy>
-7700.71421

> <-In-Situ Final Energy>
-89.7601273

> <In-Situ Gradient>
0.0713891835

> <Favorable Total>
11

> <Unfavorable Total>
0

> <Charge Total>
0

> <Hydrophobic Total>
7

> <HydrogenBond Total>
4

> <Other Total>
0

> <Favorable A:LYS6>
0

> <Favorable A:ARG55>
0

> <Favorable A:LEU58>
0

> <Favorable A:LEU61>
0

> <Favorable A:ILE62>
0

> <Favorable A:GLY64>
0

> <Favorable A:SER65>
0

> <Favorable A:TRP66>
0

> <Favorable A:SER69>
0

> <Favorable A:VAL70>
0

> <Favorable A:PRO73>
0

> <Favorable A:ALA74>
0

> <Favorable A:PHE76>
0

> <Favorable A:ALA77>
0

> <Favorable A:THR78>
0

> <Favorable A:GLU79>
0

> <Favorable A:PHE82>
0

> <Favorable A:ARG83>
0

> <Favorable A:LEU85>
1

> <Favorable A:THR86>
0

> <Favorable A:TRP89>
2

> <Favorable A:THR90>
0

> <Favorable A:ASN93>
0

> <Favorable A:HIS94>
0

> <Favorable A:SER96>
0

> <Favorable A:VAL97>
0

> <Favorable A:TRP98>
0

> <Favorable A:PHE140>
0

> <Favorable A:LEU141>
0

> <Favorable A:ASN144>
0

> <Favorable A:ILE148>
0

> <Favorable A:ILE150>
0

> <Favorable A:HIS151>
0

> <Favorable A:ILE152>
0

> <Favorable A:ALA154>
0

> <Favorable A:SER155>
0

> <Favorable A:ILE156>
0

> <Favorable A:GLY158>
0

> <Favorable A:TYR159>
0

> <Favorable A:ARG160>
0

> <Favorable A:ARG161>
0

> <Favorable A:ASN162>
0

> <Favorable A:LYS163>
0

> <Favorable A:SER167>
0

> <Favorable A:ASP168>
0

> <Favorable A:SER169>
0

> <Favorable A:ASN171>
0

> <Favorable A:PHE172>
0

> <Favorable A:THR173>
0

> <Favorable A:ARG174>
0

> <Favorable A:PHE175>
0

> <Favorable A:SER176>
0

> <Favorable A:SER177>
0

> <Favorable A:LEU178>
0

> <Favorable A:ILE179>
0

> <Favorable A:VAL180>
1

> <Favorable A:LEU181>
0

> <Favorable A:SER183>
0

> <Favorable A:THR184>
0

> <Favorable A:PHE186>
0

> <Favorable A:ILE187>
0

> <Favorable A:PHE188>
0

> <Favorable A:ILE189>
0

> <Favorable A:PRO190>
0

> <Favorable A:PHE191>
0

> <Favorable A:TYR240>
0

> <Favorable A:PHE243>
0

> <Favorable A:SER244>
0

> <Favorable A:PHE247>
0

> <Favorable A:PHE248>
0

> <Favorable A:VAL251>
0

> <Favorable A:TRP252>
0

> <Favorable A:SER254>
0

> <Favorable A:GLU255>
0

> <Favorable A:ARG256>
1

> <Favorable A:LEU257>
0

> <Favorable A:GLU258>
0

> <Favorable A:GLU259>
3

> <Favorable A:LEU261>
0

> <Favorable A:ILE262>
3

> <Favorable A:ILE263>
0

> <Favorable A:SER265>
0

> <Favorable A:GLN266>
0

> <Favorable A:MET268>
0

> <Favorable A:GLY269>
0

> <Favorable A:TYR272>
0

> <Favorable A:PRO273>
0

> <Unfavorable A:ARG55>
0

> <Unfavorable A:PRO73>
0

> <Unfavorable A:PHE76>
0

> <Unfavorable A:GLU79>
0

> <Unfavorable A:ARG83>
0

> <Unfavorable A:THR86>
0

> <Unfavorable A:TRP89>
0

> <Unfavorable A:THR90>
0

> <Unfavorable A:ASN93>
0

> <Unfavorable A:TRP98>
0

> <Unfavorable A:ASN144>
0

> <Unfavorable A:SER155>
0

> <Unfavorable A:GLY158>
0

> <Unfavorable A:TYR159>
0

> <Unfavorable A:ASN162>
0

> <Unfavorable A:ASP168>
0

> <Unfavorable A:ASN171>
0

> <Unfavorable A:THR173>
0

> <Unfavorable A:ARG174>
0

> <Unfavorable A:SER183>
0

> <Unfavorable A:THR184>
0

> <Unfavorable A:PHE186>
0

> <Unfavorable A:SER244>
0

> <Unfavorable A:SER254>
0

> <Unfavorable A:GLU255>
0

> <Unfavorable A:SER265>
0

> <Unfavorable A:GLN266>
0

> <Unfavorable A:GLY269>
0

> <Charge A:ARG55>
0

> <Charge A:PHE76>
0

> <Charge A:GLU79>
0

> <Charge A:PHE82>
0

> <Charge A:ARG83>
0

> <Charge A:TRP89>
0

> <Charge A:HIS94>
0

> <Charge A:TRP98>
0

> <Charge A:TYR159>
0

> <Charge A:ARG161>
0

> <Charge A:LYS163>
0

> <Charge A:ASP168>
0

> <Charge A:PHE172>
0

> <Charge A:ARG174>
0

> <Charge A:PHE175>
0

> <Charge A:PHE188>
0

> <Charge A:PHE247>
0

> <Charge A:PHE248>
0

> <Hydrophobic A:LEU58>
0

> <Hydrophobic A:LEU61>
0

> <Hydrophobic A:ILE62>
0

> <Hydrophobic A:TRP66>
0

> <Hydrophobic A:VAL70>
0

> <Hydrophobic A:PRO73>
0

> <Hydrophobic A:ALA74>
0

> <Hydrophobic A:PHE76>
0

> <Hydrophobic A:ALA77>
0

> <Hydrophobic A:THR78>
0

> <Hydrophobic A:PHE82>
0

> <Hydrophobic A:ARG83>
0

> <Hydrophobic A:LEU85>
1

> <Hydrophobic A:TRP89>
2

> <Hydrophobic A:THR90>
0

> <Hydrophobic A:ASN93>
0

> <Hydrophobic A:HIS94>
0

> <Hydrophobic A:VAL97>
0

> <Hydrophobic A:TRP98>
0

> <Hydrophobic A:PHE140>
0

> <Hydrophobic A:LEU141>
0

> <Hydrophobic A:ILE148>
0

> <Hydrophobic A:ILE150>
0

> <Hydrophobic A:HIS151>
0

> <Hydrophobic A:ILE152>
0

> <Hydrophobic A:ALA154>
0

> <Hydrophobic A:SER155>
0

> <Hydrophobic A:ILE156>
0

> <Hydrophobic A:GLY158>
0

> <Hydrophobic A:TYR159>
0

> <Hydrophobic A:ARG160>
0

> <Hydrophobic A:ARG161>
0

> <Hydrophobic A:ASP168>
0

> <Hydrophobic A:ASN171>
0

> <Hydrophobic A:PHE172>
0

> <Hydrophobic A:ARG174>
0

> <Hydrophobic A:PHE175>
0

> <Hydrophobic A:LEU178>
0

> <Hydrophobic A:ILE179>
0

> <Hydrophobic A:VAL180>
1

> <Hydrophobic A:LEU181>
0

> <Hydrophobic A:PHE186>
0

> <Hydrophobic A:ILE187>
0

> <Hydrophobic A:PHE188>
0

> <Hydrophobic A:ILE189>
0

> <Hydrophobic A:PRO190>
0

> <Hydrophobic A:PHE191>
0

> <Hydrophobic A:TYR240>
0

> <Hydrophobic A:PHE243>
0

> <Hydrophobic A:PHE247>
0

> <Hydrophobic A:PHE248>
0

> <Hydrophobic A:VAL251>
0

> <Hydrophobic A:TRP252>
0

> <Hydrophobic A:SER254>
0

> <Hydrophobic A:LEU261>
0

> <Hydrophobic A:ILE262>
3

> <Hydrophobic A:ILE263>
0

> <Hydrophobic A:TYR272>
0

> <Hydrophobic A:PRO273>
0

> <HydrogenBond A:LYS6>
0

> <HydrogenBond A:ARG55>
0

> <HydrogenBond A:GLY64>
0

> <HydrogenBond A:SER65>
0

> <HydrogenBond A:TRP66>
0

> <HydrogenBond A:SER69>
0

> <HydrogenBond A:PRO73>
0

> <HydrogenBond A:ALA74>
0

> <HydrogenBond A:PHE76>
0

> <HydrogenBond A:ALA77>
0

> <HydrogenBond A:THR78>
0

> <HydrogenBond A:GLU79>
0

> <HydrogenBond A:PHE82>
0

> <HydrogenBond A:ARG83>
0

> <HydrogenBond A:LEU85>
0

> <HydrogenBond A:THR86>
0

> <HydrogenBond A:TRP89>
0

> <HydrogenBond A:THR90>
0

> <HydrogenBond A:ASN93>
0

> <HydrogenBond A:HIS94>
0

> <HydrogenBond A:SER96>
0

> <HydrogenBond A:TRP98>
0

> <HydrogenBond A:ASN144>
0

> <HydrogenBond A:HIS151>
0

> <HydrogenBond A:ILE152>
0

> <HydrogenBond A:ALA154>
0

> <HydrogenBond A:SER155>
0

> <HydrogenBond A:ILE156>
0

> <HydrogenBond A:GLY158>
0

> <HydrogenBond A:TYR159>
0

> <HydrogenBond A:ASN162>
0

> <HydrogenBond A:LYS163>
0

> <HydrogenBond A:SER167>
0

> <HydrogenBond A:ASP168>
0

> <HydrogenBond A:SER169>
0

> <HydrogenBond A:ASN171>
0

> <HydrogenBond A:PHE172>
0

> <HydrogenBond A:THR173>
0

> <HydrogenBond A:ARG174>
0

> <HydrogenBond A:PHE175>
0

> <HydrogenBond A:SER176>
0

> <HydrogenBond A:SER177>
0

> <HydrogenBond A:ILE179>
0

> <HydrogenBond A:VAL180>
0

> <HydrogenBond A:SER183>
0

> <HydrogenBond A:THR184>
0

> <HydrogenBond A:PHE186>
0

> <HydrogenBond A:ILE187>
0

> <HydrogenBond A:PRO190>
0

> <HydrogenBond A:TYR240>
0

> <HydrogenBond A:PHE243>
0

> <HydrogenBond A:SER244>
0

> <HydrogenBond A:PHE247>
0

> <HydrogenBond A:VAL251>
0

> <HydrogenBond A:SER254>
0

> <HydrogenBond A:GLU255>
0

> <HydrogenBond A:ARG256>
1

> <HydrogenBond A:LEU257>
0

> <HydrogenBond A:GLU258>
0

> <HydrogenBond A:GLU259>
3

> <HydrogenBond A:ILE262>
0

> <HydrogenBond A:SER265>
0

> <HydrogenBond A:GLN266>
0

> <HydrogenBond A:MET268>
0

> <HydrogenBond A:GLY269>
0

> <HydrogenBond A:PRO273>
0

> <Other A:SER69>
0

> <Other A:TRP89>
0

> <Other A:TYR159>
0

> <Other A:PHE172>
0

> <Other A:SER176>
0

> <Other A:SER265>
0

$$$$
676946
  SciTegic09122300493D

 26 26  0  0  0  0            999 V2000
   10.2501    7.8258   -6.6984 O   0  0  0  1  0  0
    6.0295   11.3403   -0.2138 O   0  0  0  1  0  0
    9.6824    6.1094   -5.0950 O   0  0  0  1  0  0
    7.1424    8.7596   -3.1345 C   0  0  0  1  0  0
    7.1510   10.2188   -3.3252 C   0  0  0  1  0  0
    6.4184    8.2730   -1.9412 C   0  0  0  1  0  0
    7.7921    7.9072   -3.9549 C   0  0  0  1  0  0
    6.7881   11.0686   -2.3491 C   0  0  0  1  0  0
    6.0737    9.0940   -0.9277 C   0  0  0  1  0  0
    6.2998   10.5503   -1.0616 C   0  0  0  1  0  0
   11.2282    7.0088   -7.3262 C   0  0  0  1  0  0
    8.6877    8.2257   -5.0713 C   0  0  0  1  0  0
    9.5496    7.3635   -5.6391 C   0  0  0  1  0  0
   11.5716    7.6451   -8.6686 C   0  0  0  1  0  0
   10.5867    5.8272   -5.0428 H   0  0
    7.4560   10.5888   -4.2768 H   0  0
    6.2131    7.2202   -1.8765 H   0  0
    7.7067    6.8512   -3.8156 H   0  0
    6.8243   12.1308   -2.4769 H   0  0
    5.6196    8.7154   -0.0316 H   0  0
   12.1269    6.9257   -6.7168 H   0  0
   10.8709    5.9979   -7.5026 H   0  0
    8.6563    9.2327   -5.4155 H   0  0
   11.9817    8.6468   -8.5399 H   0  0
   10.6741    7.7256   -9.2825 H   0  0
   12.3067    7.0484   -9.2087 H   0  0
  1 11  1  0
  1 13  1  0
  2 10  2  0
  3 13  1  0
  4  5  1  0
  4  6  1  0
  4  7  2  0
  5  8  2  0
  6  9  2  0
  7 12  1  0
  8 10  1  0
  9 10  1  0
 11 14  1  0
 12 13  2  0
  3 15  1  0
  5 16  1  0
  6 17  1  0
  7 18  1  0
  8 19  1  0
  9 20  1  0
 11 21  1  0
 11 22  1  0
 12 23  1  0
 14 24  1  0
 14 25  1  0
 14 26  1  0
M  END
> <Name>
676946

> <Binding Energy>
-30.5459

> <Ligand Energy>
-1.1035

> <Protein Energy>
-7801.1566

> <Complex Energy>
-7832.8061

> <Complex Entropy>
-31.4775

> <Protein Entropy>
-31.4717

> <Ligand Entropy>
-18.3435

> <Entropic Energy>
18.3376

> <AbsoluteEnergy>
24.653

> <ConfNumber>
31

> <Ionization pH>
7.5

> <IonizationIndex>
1

> <MOL_NUMBER>
106

> <NumberOfIonizations>
1

> <NumberOfStereoisomers>
1

> <NumberOfTautomers>
2

> <PUBCHEM_ATOM_DEF_STEREO_COUNT>
0

> <PUBCHEM_ATOM_UDEF_STEREO_COUNT>
0

> <PUBCHEM_BOND_DEF_STEREO_COUNT>
1

> <PUBCHEM_BOND_UDEF_STEREO_COUNT>
0

> <PUBCHEM_CACTVS_TAUTO_COUNT>
2

> <PUBCHEM_COMPONENT_COUNT>
1

> <PUBCHEM_COMPOUND_CID>
676946

> <PUBCHEM_CONFORMER_DIVERSEORDER>
1
9
12
3
14
5
2
4
13
6
11
8
10
7

> <PUBCHEM_CONFORMER_ID>
000A545200000001

> <PUBCHEM_CONFORMER_RMSD>
0.6

> <PUBCHEM_COORDINATE_TYPE>
2
5
10

> <PUBCHEM_EFFECTIVE_ROTOR_COUNT>
4

> <PUBCHEM_FEATURE_SELFOVERLAP>
15.223

> <PUBCHEM_HEAVY_ATOM_COUNT>
14

> <PUBCHEM_ISOTOPIC_ATOM_COUNT>
0

> <PUBCHEM_MMFF94_ENERGY>
30.7178

> <PUBCHEM_MMFF94_PARTIAL_CHARGES>
20
1 -0.43
10 0.08
11 0.28
12 -0.14
13 0.71
15 0.15
16 0.15
17 0.15
18 0.15
19 0.15
2 -0.53
22 0.15
26 0.45
3 -0.57
4 0.03
5 -0.15
6 -0.15
7 -0.18
8 -0.15
9 -0.15

> <PUBCHEM_PHARMACOPHORE_FEATURES>
3
1 2 donor
1 3 acceptor
6 4 5 6 8 9 10 rings

> <PUBCHEM_SHAPE_FINGERPRINT>
10014705 185 18407758145132551487
100836 57 18260553324623772453
11401426 45 18202561804499182360
11471102 20 18343021082089906790
12500047 106 18411697725001383027
14252887 29 12613025072780788680
15048467 5 18260831514151046348
15242439 84 18342178864482892614
15501527 16 18408888421716862593
17834072 33 18202559605634292935
17834072 8 18272939301883486388
18186145 218 18113611291957712583
200 152 17632576058960265923
20279233 1 18408611369865526275
20645477 56 18333449846450203973
20645477 70 18202004274594652518
21119208 17 17704072901735660253
212847 35 18335138683151402280
22289505 5 18342736278250239484
23402539 116 18341325673498096942
23402655 69 18344144795489104782
23559900 14 18413388713860926898
29717793 49 16988568961562070356
300161 21 18342450448018012779
3060560 45 17775290460954226070
3545911 37 18411984671829329569
4047638 21 18260550013425370834
4072396 5 18341320129497268682
4214541 1 18410856577399978931
42788 4 18410011022787875149
5104073 3 18408039636619433602
522135 26 18341331115406381046
542803 24 17240204339213614365
633830 44 18040714809381897254
77779 3 18410857685264313875
8272917 22 18130510717184214623

> <PUBCHEM_SHAPE_MULTIPOLES>
270.51
11.5
1.45
0.63
9.22
0.06
0
-4.14
-1.01
0.03
0.02
-0.01
0
0.4

> <PUBCHEM_SHAPE_SELFOVERLAP>
554.367

> <PUBCHEM_SHAPE_VOLUME>
156.6

> <RelativeEnergy>
4.6225

> <StereoisomerIndex>
1

> <TautomerIndex>
2

> <POSE_NUMBER>
1

> <LibDockScore>
98.2636

> <HotSpots>
7.21,9.27,-3.25,A,45,5
5.81,8.67,-0.66,A,61,9
10.81,8.27,-8.46,A,35,14

> <-In-Situ Starting Energy>
-514.309735

> <-In-Situ Final Energy>
19.1581003

> <In-Situ Gradient>
0.0009951615956

> <Favorable Total>
7

> <Unfavorable Total>
0

> <Charge Total>
0

> <Hydrophobic Total>
5

> <HydrogenBond Total>
2

> <Other Total>
0

> <Favorable A:LYS6>
0

> <Favorable A:ARG55>
0

> <Favorable A:LEU58>
0

> <Favorable A:LEU61>
0

> <Favorable A:ILE62>
0

> <Favorable A:GLY64>
0

> <Favorable A:SER65>
0

> <Favorable A:TRP66>
0

> <Favorable A:SER69>
0

> <Favorable A:VAL70>
0

> <Favorable A:PRO73>
0

> <Favorable A:ALA74>
0

> <Favorable A:PHE76>
0

> <Favorable A:ALA77>
0

> <Favorable A:THR78>
0

> <Favorable A:GLU79>
0

> <Favorable A:PHE82>
0

> <Favorable A:ARG83>
0

> <Favorable A:LEU85>
0

> <Favorable A:THR86>
0

> <Favorable A:TRP89>
1

> <Favorable A:THR90>
1

> <Favorable A:ASN93>
1

> <Favorable A:HIS94>
0

> <Favorable A:SER96>
0

> <Favorable A:VAL97>
0

> <Favorable A:TRP98>
1

> <Favorable A:PHE140>
0

> <Favorable A:LEU141>
0

> <Favorable A:ASN144>
0

> <Favorable A:ILE148>
1

> <Favorable A:ILE150>
0

> <Favorable A:HIS151>
0

> <Favorable A:ILE152>
0

> <Favorable A:ALA154>
0

> <Favorable A:SER155>
0

> <Favorable A:ILE156>
0

> <Favorable A:GLY158>
0

> <Favorable A:TYR159>
0

> <Favorable A:ARG160>
0

> <Favorable A:ARG161>
0

> <Favorable A:ASN162>
0

> <Favorable A:LYS163>
0

> <Favorable A:SER167>
0

> <Favorable A:ASP168>
0

> <Favorable A:SER169>
0

> <Favorable A:ASN171>
0

> <Favorable A:PHE172>
0

> <Favorable A:THR173>
0

> <Favorable A:ARG174>
0

> <Favorable A:PHE175>
0

> <Favorable A:SER176>
0

> <Favorable A:SER177>
0

> <Favorable A:LEU178>
0

> <Favorable A:ILE179>
1

> <Favorable A:VAL180>
0

> <Favorable A:LEU181>
0

> <Favorable A:SER183>
0

> <Favorable A:THR184>
0

> <Favorable A:PHE186>
0

> <Favorable A:ILE187>
1

> <Favorable A:PHE188>
0

> <Favorable A:ILE189>
0

> <Favorable A:PRO190>
0

> <Favorable A:PHE191>
0

> <Favorable A:TYR240>
0

> <Favorable A:PHE243>
0

> <Favorable A:SER244>
0

> <Favorable A:PHE247>
0

> <Favorable A:PHE248>
0

> <Favorable A:VAL251>
0

> <Favorable A:TRP252>
0

> <Favorable A:SER254>
0

> <Favorable A:GLU255>
0

> <Favorable A:ARG256>
0

> <Favorable A:LEU257>
0

> <Favorable A:GLU258>
0

> <Favorable A:GLU259>
0

> <Favorable A:LEU261>
0

> <Favorable A:ILE262>
0

> <Favorable A:ILE263>
0

> <Favorable A:SER265>
0

> <Favorable A:GLN266>
0

> <Favorable A:MET268>
0

> <Favorable A:GLY269>
0

> <Favorable A:TYR272>
0

> <Favorable A:PRO273>
0

> <Unfavorable A:ARG55>
0

> <Unfavorable A:PRO73>
0

> <Unfavorable A:PHE76>
0

> <Unfavorable A:GLU79>
0

> <Unfavorable A:ARG83>
0

> <Unfavorable A:THR86>
0

> <Unfavorable A:TRP89>
0

> <Unfavorable A:THR90>
0

> <Unfavorable A:ASN93>
0

> <Unfavorable A:TRP98>
0

> <Unfavorable A:ASN144>
0

> <Unfavorable A:SER155>
0

> <Unfavorable A:GLY158>
0

> <Unfavorable A:TYR159>
0

> <Unfavorable A:ASN162>
0

> <Unfavorable A:ASP168>
0

> <Unfavorable A:ASN171>
0

> <Unfavorable A:THR173>
0

> <Unfavorable A:ARG174>
0

> <Unfavorable A:SER183>
0

> <Unfavorable A:THR184>
0

> <Unfavorable A:PHE186>
0

> <Unfavorable A:SER244>
0

> <Unfavorable A:SER254>
0

> <Unfavorable A:GLU255>
0

> <Unfavorable A:SER265>
0

> <Unfavorable A:GLN266>
0

> <Unfavorable A:GLY269>
0

> <Charge A:ARG55>
0

> <Charge A:PHE76>
0

> <Charge A:GLU79>
0

> <Charge A:PHE82>
0

> <Charge A:ARG83>
0

> <Charge A:TRP89>
0

> <Charge A:HIS94>
0

> <Charge A:TRP98>
0

> <Charge A:TYR159>
0

> <Charge A:ARG161>
0

> <Charge A:LYS163>
0

> <Charge A:ASP168>
0

> <Charge A:PHE172>
0

> <Charge A:ARG174>
0

> <Charge A:PHE175>
0

> <Charge A:PHE188>
0

> <Charge A:PHE247>
0

> <Charge A:PHE248>
0

> <Hydrophobic A:LEU58>
0

> <Hydrophobic A:LEU61>
0

> <Hydrophobic A:ILE62>
0

> <Hydrophobic A:TRP66>
0

> <Hydrophobic A:VAL70>
0

> <Hydrophobic A:PRO73>
0

> <Hydrophobic A:ALA74>
0

> <Hydrophobic A:PHE76>
0

> <Hydrophobic A:ALA77>
0

> <Hydrophobic A:THR78>
0

> <Hydrophobic A:PHE82>
0

> <Hydrophobic A:ARG83>
0

> <Hydrophobic A:LEU85>
0

> <Hydrophobic A:TRP89>
1

> <Hydrophobic A:THR90>
0

> <Hydrophobic A:ASN93>
1

> <Hydrophobic A:HIS94>
0

> <Hydrophobic A:VAL97>
0

> <Hydrophobic A:TRP98>
0

> <Hydrophobic A:PHE140>
0

> <Hydrophobic A:LEU141>
0

> <Hydrophobic A:ILE148>
1

> <Hydrophobic A:ILE150>
0

> <Hydrophobic A:HIS151>
0

> <Hydrophobic A:ILE152>
0

> <Hydrophobic A:ALA154>
0

> <Hydrophobic A:SER155>
0

> <Hydrophobic A:ILE156>
0

> <Hydrophobic A:GLY158>
0

> <Hydrophobic A:TYR159>
0

> <Hydrophobic A:ARG160>
0

> <Hydrophobic A:ARG161>
0

> <Hydrophobic A:ASP168>
0

> <Hydrophobic A:ASN171>
0

> <Hydrophobic A:PHE172>
0

> <Hydrophobic A:ARG174>
0

> <Hydrophobic A:PHE175>
0

> <Hydrophobic A:LEU178>
0

> <Hydrophobic A:ILE179>
1

> <Hydrophobic A:VAL180>
0

> <Hydrophobic A:LEU181>
0

> <Hydrophobic A:PHE186>
0

> <Hydrophobic A:ILE187>
1

> <Hydrophobic A:PHE188>
0

> <Hydrophobic A:ILE189>
0

> <Hydrophobic A:PRO190>
0

> <Hydrophobic A:PHE191>
0

> <Hydrophobic A:TYR240>
0

> <Hydrophobic A:PHE243>
0

> <Hydrophobic A:PHE247>
0

> <Hydrophobic A:PHE248>
0

> <Hydrophobic A:VAL251>
0

> <Hydrophobic A:TRP252>
0

> <Hydrophobic A:SER254>
0

> <Hydrophobic A:LEU261>
0

> <Hydrophobic A:ILE262>
0

> <Hydrophobic A:ILE263>
0

> <Hydrophobic A:TYR272>
0

> <Hydrophobic A:PRO273>
0

> <HydrogenBond A:LYS6>
0

> <HydrogenBond A:ARG55>
0

> <HydrogenBond A:GLY64>
0

> <HydrogenBond A:SER65>
0

> <HydrogenBond A:TRP66>
0

> <HydrogenBond A:SER69>
0

> <HydrogenBond A:PRO73>
0

> <HydrogenBond A:ALA74>
0

> <HydrogenBond A:PHE76>
0

> <HydrogenBond A:ALA77>
0

> <HydrogenBond A:THR78>
0

> <HydrogenBond A:GLU79>
0

> <HydrogenBond A:PHE82>
0

> <HydrogenBond A:ARG83>
0

> <HydrogenBond A:LEU85>
0

> <HydrogenBond A:THR86>
0

> <HydrogenBond A:TRP89>
0

> <HydrogenBond A:THR90>
1

> <HydrogenBond A:ASN93>
0

> <HydrogenBond A:HIS94>
0

> <HydrogenBond A:SER96>
0

> <HydrogenBond A:TRP98>
1

> <HydrogenBond A:ASN144>
0

> <HydrogenBond A:HIS151>
0

> <HydrogenBond A:ILE152>
0

> <HydrogenBond A:ALA154>
0

> <HydrogenBond A:SER155>
0

> <HydrogenBond A:ILE156>
0

> <HydrogenBond A:GLY158>
0

> <HydrogenBond A:TYR159>
0

> <HydrogenBond A:ASN162>
0

> <HydrogenBond A:LYS163>
0

> <HydrogenBond A:SER167>
0

> <HydrogenBond A:ASP168>
0

> <HydrogenBond A:SER169>
0

> <HydrogenBond A:ASN171>
0

> <HydrogenBond A:PHE172>
0

> <HydrogenBond A:THR173>
0

> <HydrogenBond A:ARG174>
0

> <HydrogenBond A:PHE175>
0

> <HydrogenBond A:SER176>
0

> <HydrogenBond A:SER177>
0

> <HydrogenBond A:ILE179>
0

> <HydrogenBond A:VAL180>
0

> <HydrogenBond A:SER183>
0

> <HydrogenBond A:THR184>
0

> <HydrogenBond A:PHE186>
0

> <HydrogenBond A:ILE187>
0

> <HydrogenBond A:PRO190>
0

> <HydrogenBond A:TYR240>
0

> <HydrogenBond A:PHE243>
0

> <HydrogenBond A:SER244>
0

> <HydrogenBond A:PHE247>
0

> <HydrogenBond A:VAL251>
0

> <HydrogenBond A:SER254>
0

> <HydrogenBond A:GLU255>
0

> <HydrogenBond A:ARG256>
0

> <HydrogenBond A:LEU257>
0

> <HydrogenBond A:GLU258>
0

> <HydrogenBond A:GLU259>
0

> <HydrogenBond A:ILE262>
0

> <HydrogenBond A:SER265>
0

> <HydrogenBond A:GLN266>
0

> <HydrogenBond A:MET268>
0

> <HydrogenBond A:GLY269>
0

> <HydrogenBond A:PRO273>
0

> <Other A:SER69>
0

> <Other A:TRP89>
0

> <Other A:TYR159>
0

> <Other A:PHE172>
0

> <Other A:SER176>
0

> <Other A:SER265>
0

$$$$
689043
  SciTegic09122300493D

 20 20  0  0  0  0            999 V2000
   10.2953   10.3998   -5.5354 O   0  0  0  1  0  0
    9.5309    8.2194   -6.8034 O   0  0  0  1  0  0
    5.9685   11.2747   -0.3053 O   0  5  0  1  0  0
    4.9832    9.5209    0.5066 O   0  0  0  1  0  0
    8.1394    9.0616   -3.0174 C   0  0  0  1  0  0
    9.2363    9.6733   -3.5206 C   0  0  0  1  0  0
    7.6877    7.9258   -3.6320 C   0  0  0  1  0  0
    9.5360    9.4899   -4.8463 C   0  0  0  1  0  0
    9.0600    8.3986   -5.5227 C   0  0  0  1  0  0
    8.1659    7.5514   -4.8883 C   0  0  0  1  0  0
    7.4959    9.6654   -1.8705 C   0  0  0  1  0  0
    6.3903    9.2026   -1.2738 C   0  0  0  1  0  0
    5.7458   10.0594   -0.2811 C   0  0  0  1  0  0
   10.0755   11.3094   -5.3593 H   0  0
   10.4462    8.4943   -6.8187 H   0  0
    9.7440   10.3820   -2.8922 H   0  0
    7.0825    7.3199   -2.9938 H   0  0
    7.8299    6.6520   -5.3769 H   0  0
    7.9401   10.5685   -1.5045 H   0  0
    5.9433    8.2515   -1.4899 H   0  0
  1  8  1  0
  2  9  1  0
  3 13  1  0
  4 13  2  0
  5  6  2  0
  5  7  1  0
  5 11  1  0
  6  8  1  0
  7 10  2  0
  8  9  2  0
  9 10  1  0
 11 12  2  0
 12 13  1  0
  1 14  1  0
  2 15  1  0
  6 16  1  0
  7 17  1  0
 10 18  1  0
 11 19  1  0
 12 20  1  0
M  CHG  1   3  -1
M  END
> <Name>
689043

> <Binding Energy>
-61.8093

> <Ligand Energy>
-9.0664

> <Protein Energy>
-7801.1566

> <Complex Energy>
-7872.0324

> <Complex Entropy>
-31.4771

> <Protein Entropy>
-31.4717

> <Ligand Entropy>
-18.0305

> <Entropic Energy>
18.0251

> <AbsoluteEnergy>
21.3159

> <ConfNumber>
2

> <Ionization pH>
7.5

> <IonizationIndex>
1

> <MOL_NUMBER>
107

> <NumberOfIonizations>
1

> <NumberOfStereoisomers>
1

> <NumberOfTautomers>
1

> <PUBCHEM_ATOM_DEF_STEREO_COUNT>
0

> <PUBCHEM_ATOM_UDEF_STEREO_COUNT>
0

> <PUBCHEM_BOND_DEF_STEREO_COUNT>
1

> <PUBCHEM_BOND_UDEF_STEREO_COUNT>
0

> <PUBCHEM_CACTVS_TAUTO_COUNT>
10

> <PUBCHEM_COMPONENT_COUNT>
1

> <PUBCHEM_COMPOUND_CID>
689043

> <PUBCHEM_CONFORMER_DIVERSEORDER>
1
2

> <PUBCHEM_CONFORMER_ID>
000A839300000001

> <PUBCHEM_CONFORMER_RMSD>
0.6

> <PUBCHEM_COORDINATE_TYPE>
2
5
10

> <PUBCHEM_EFFECTIVE_ROTOR_COUNT>
2

> <PUBCHEM_FEATURE_SELFOVERLAP>
30.506

> <PUBCHEM_HEAVY_ATOM_COUNT>
13

> <PUBCHEM_ISOTOPIC_ATOM_COUNT>
0

> <PUBCHEM_MMFF94_ENERGY>
32.6032

> <PUBCHEM_MMFF94_PARTIAL_CHARGES>
21
1 -0.53
10 -0.15
11 -0.18
12 -0.14
13 0.71
14 0.15
15 0.15
16 0.15
17 0.15
18 0.15
19 0.45
2 -0.53
20 0.45
21 0.5
3 -0.65
4 -0.57
5 0.03
6 -0.15
7 -0.15
8 0.08
9 0.08

> <PUBCHEM_PHARMACOPHORE_FEATURES>
6
1 1 donor
1 2 donor
1 3 acceptor
1 4 acceptor
3 3 4 13 anion
6 5 6 7 8 9 10 rings

> <PUBCHEM_SHAPE_FINGERPRINT>
10219947 1 18412265021176552998
10980938 120 18410011044025373774
11062470 55 18272089404869723785
11471102 20 18408881823882016612
12032990 46 18337392638943783110
12346645 6 18342740710956779662
12932764 1 17346587599786472741
13380535 76 18335702796809125162
14144814 61 18413108359780516017
14251717 144 18408600379001959303
14325111 11 18411419527205616253
14576447 43 18199175373047286799
15219456 202 18187636964628010213
15442244 35 18267587905397049569
15501101 241 18260266343403952092
15536298 74 18342739607007733550
18186145 218 17967811626635825739
200 152 18272642477099887159
20279233 1 17095241436537016995
20645477 70 18410571747737792927
20871998 22 18126004858715295510
21501925 9 18337099090987966450
22485316 2 18409164407287330639
23402539 116 17274819164432577013
23402655 69 18412259528330223461
2748010 2 18192697961406879940
449060 62 18411420635455053572
4990 188 18060151950489470156
5104073 3 18411419505725655379
581208 293 18334855047668835764
77779 3 18410857663947525075

> <PUBCHEM_SHAPE_MULTIPOLES>
244.06
7.78
1.51
0.61
5.93
0.1
-0.01
0.08
0.47
-0.89
0
0.04
-0.01
-0.29

> <PUBCHEM_SHAPE_SELFOVERLAP>
514.004

> <PUBCHEM_SHAPE_VOLUME>
137.2

> <RelativeEnergy>
0.0402467

> <StereoisomerIndex>
1

> <TautomerIndex>
1

> <POSE_NUMBER>
1

> <LibDockScore>
95.5879

> <HotSpots>
10.01,10.27,-5.66,P,55,1
8.81,8.07,-6.66,P,48,2
5.81,9.67,0.14,A,68,13

> <-In-Situ Starting Energy>
-912.187962

> <-In-Situ Final Energy>
17.8142658

> <In-Situ Gradient>
0.0009359997774

> <Favorable Total>
6

> <Unfavorable Total>
0

> <Charge Total>
0

> <Hydrophobic Total>
1

> <HydrogenBond Total>
5

> <Other Total>
0

> <Favorable A:LYS6>
0

> <Favorable A:ARG55>
0

> <Favorable A:LEU58>
0

> <Favorable A:LEU61>
0

> <Favorable A:ILE62>
0

> <Favorable A:GLY64>
0

> <Favorable A:SER65>
0

> <Favorable A:TRP66>
0

> <Favorable A:SER69>
0

> <Favorable A:VAL70>
0

> <Favorable A:PRO73>
0

> <Favorable A:ALA74>
0

> <Favorable A:PHE76>
0

> <Favorable A:ALA77>
0

> <Favorable A:THR78>
0

> <Favorable A:GLU79>
0

> <Favorable A:PHE82>
0

> <Favorable A:ARG83>
0

> <Favorable A:LEU85>
0

> <Favorable A:THR86>
0

> <Favorable A:TRP89>
1

> <Favorable A:THR90>
1

> <Favorable A:ASN93>
0

> <Favorable A:HIS94>
1

> <Favorable A:SER96>
0

> <Favorable A:VAL97>
0

> <Favorable A:TRP98>
1

> <Favorable A:PHE140>
0

> <Favorable A:LEU141>
0

> <Favorable A:ASN144>
0

> <Favorable A:ILE148>
0

> <Favorable A:ILE150>
0

> <Favorable A:HIS151>
0

> <Favorable A:ILE152>
0

> <Favorable A:ALA154>
0

> <Favorable A:SER155>
0

> <Favorable A:ILE156>
0

> <Favorable A:GLY158>
0

> <Favorable A:TYR159>
0

> <Favorable A:ARG160>
0

> <Favorable A:ARG161>
0

> <Favorable A:ASN162>
0

> <Favorable A:LYS163>
0

> <Favorable A:SER167>
0

> <Favorable A:ASP168>
0

> <Favorable A:SER169>
0

> <Favorable A:ASN171>
0

> <Favorable A:PHE172>
0

> <Favorable A:THR173>
0

> <Favorable A:ARG174>
0

> <Favorable A:PHE175>
0

> <Favorable A:SER176>
0

> <Favorable A:SER177>
0

> <Favorable A:LEU178>
0

> <Favorable A:ILE179>
0

> <Favorable A:VAL180>
0

> <Favorable A:LEU181>
0

> <Favorable A:SER183>
1

> <Favorable A:THR184>
0

> <Favorable A:PHE186>
0

> <Favorable A:ILE187>
1

> <Favorable A:PHE188>
0

> <Favorable A:ILE189>
0

> <Favorable A:PRO190>
0

> <Favorable A:PHE191>
0

> <Favorable A:TYR240>
0

> <Favorable A:PHE243>
0

> <Favorable A:SER244>
0

> <Favorable A:PHE247>
0

> <Favorable A:PHE248>
0

> <Favorable A:VAL251>
0

> <Favorable A:TRP252>
0

> <Favorable A:SER254>
0

> <Favorable A:GLU255>
0

> <Favorable A:ARG256>
0

> <Favorable A:LEU257>
0

> <Favorable A:GLU258>
0

> <Favorable A:GLU259>
0

> <Favorable A:LEU261>
0

> <Favorable A:ILE262>
0

> <Favorable A:ILE263>
0

> <Favorable A:SER265>
0

> <Favorable A:GLN266>
0

> <Favorable A:MET268>
0

> <Favorable A:GLY269>
0

> <Favorable A:TYR272>
0

> <Favorable A:PRO273>
0

> <Unfavorable A:ARG55>
0

> <Unfavorable A:PRO73>
0

> <Unfavorable A:PHE76>
0

> <Unfavorable A:GLU79>
0

> <Unfavorable A:ARG83>
0

> <Unfavorable A:THR86>
0

> <Unfavorable A:TRP89>
0

> <Unfavorable A:THR90>
0

> <Unfavorable A:ASN93>
0

> <Unfavorable A:TRP98>
0

> <Unfavorable A:ASN144>
0

> <Unfavorable A:SER155>
0

> <Unfavorable A:GLY158>
0

> <Unfavorable A:TYR159>
0

> <Unfavorable A:ASN162>
0

> <Unfavorable A:ASP168>
0

> <Unfavorable A:ASN171>
0

> <Unfavorable A:THR173>
0

> <Unfavorable A:ARG174>
0

> <Unfavorable A:SER183>
0

> <Unfavorable A:THR184>
0

> <Unfavorable A:PHE186>
0

> <Unfavorable A:SER244>
0

> <Unfavorable A:SER254>
0

> <Unfavorable A:GLU255>
0

> <Unfavorable A:SER265>
0

> <Unfavorable A:GLN266>
0

> <Unfavorable A:GLY269>
0

> <Charge A:ARG55>
0

> <Charge A:PHE76>
0

> <Charge A:GLU79>
0

> <Charge A:PHE82>
0

> <Charge A:ARG83>
0

> <Charge A:TRP89>
0

> <Charge A:HIS94>
0

> <Charge A:TRP98>
0

> <Charge A:TYR159>
0

> <Charge A:ARG161>
0

> <Charge A:LYS163>
0

> <Charge A:ASP168>
0

> <Charge A:PHE172>
0

> <Charge A:ARG174>
0

> <Charge A:PHE175>
0

> <Charge A:PHE188>
0

> <Charge A:PHE247>
0

> <Charge A:PHE248>
0

> <Hydrophobic A:LEU58>
0

> <Hydrophobic A:LEU61>
0

> <Hydrophobic A:ILE62>
0

> <Hydrophobic A:TRP66>
0

> <Hydrophobic A:VAL70>
0

> <Hydrophobic A:PRO73>
0

> <Hydrophobic A:ALA74>
0

> <Hydrophobic A:PHE76>
0

> <Hydrophobic A:ALA77>
0

> <Hydrophobic A:THR78>
0

> <Hydrophobic A:PHE82>
0

> <Hydrophobic A:ARG83>
0

> <Hydrophobic A:LEU85>
0

> <Hydrophobic A:TRP89>
0

> <Hydrophobic A:THR90>
0

> <Hydrophobic A:ASN93>
0

> <Hydrophobic A:HIS94>
0

> <Hydrophobic A:VAL97>
0

> <Hydrophobic A:TRP98>
0

> <Hydrophobic A:PHE140>
0

> <Hydrophobic A:LEU141>
0

> <Hydrophobic A:ILE148>
0

> <Hydrophobic A:ILE150>
0

> <Hydrophobic A:HIS151>
0

> <Hydrophobic A:ILE152>
0

> <Hydrophobic A:ALA154>
0

> <Hydrophobic A:SER155>
0

> <Hydrophobic A:ILE156>
0

> <Hydrophobic A:GLY158>
0

> <Hydrophobic A:TYR159>
0

> <Hydrophobic A:ARG160>
0

> <Hydrophobic A:ARG161>
0

> <Hydrophobic A:ASP168>
0

> <Hydrophobic A:ASN171>
0

> <Hydrophobic A:PHE172>
0

> <Hydrophobic A:ARG174>
0

> <Hydrophobic A:PHE175>
0

> <Hydrophobic A:LEU178>
0

> <Hydrophobic A:ILE179>
0

> <Hydrophobic A:VAL180>
0

> <Hydrophobic A:LEU181>
0

> <Hydrophobic A:PHE186>
0

> <Hydrophobic A:ILE187>
1

> <Hydrophobic A:PHE188>
0

> <Hydrophobic A:ILE189>
0

> <Hydrophobic A:PRO190>
0

> <Hydrophobic A:PHE191>
0

> <Hydrophobic A:TYR240>
0

> <Hydrophobic A:PHE243>
0

> <Hydrophobic A:PHE247>
0

> <Hydrophobic A:PHE248>
0

> <Hydrophobic A:VAL251>
0

> <Hydrophobic A:TRP252>
0

> <Hydrophobic A:SER254>
0

> <Hydrophobic A:LEU261>
0

> <Hydrophobic A:ILE262>
0

> <Hydrophobic A:ILE263>
0

> <Hydrophobic A:TYR272>
0

> <Hydrophobic A:PRO273>
0

> <HydrogenBond A:LYS6>
0

> <HydrogenBond A:ARG55>
0

> <HydrogenBond A:GLY64>
0

> <HydrogenBond A:SER65>
0

> <HydrogenBond A:TRP66>
0

> <HydrogenBond A:SER69>
0

> <HydrogenBond A:PRO73>
0

> <HydrogenBond A:ALA74>
0

> <HydrogenBond A:PHE76>
0

> <HydrogenBond A:ALA77>
0

> <HydrogenBond A:THR78>
0

> <HydrogenBond A:GLU79>
0

> <HydrogenBond A:PHE82>
0

> <HydrogenBond A:ARG83>
0

> <HydrogenBond A:LEU85>
0

> <HydrogenBond A:THR86>
0

> <HydrogenBond A:TRP89>
1

> <HydrogenBond A:THR90>
1

> <HydrogenBond A:ASN93>
0

> <HydrogenBond A:HIS94>
1

> <HydrogenBond A:SER96>
0

> <HydrogenBond A:TRP98>
1

> <HydrogenBond A:ASN144>
0

> <HydrogenBond A:HIS151>
0

> <HydrogenBond A:ILE152>
0

> <HydrogenBond A:ALA154>
0

> <HydrogenBond A:SER155>
0

> <HydrogenBond A:ILE156>
0

> <HydrogenBond A:GLY158>
0

> <HydrogenBond A:TYR159>
0

> <HydrogenBond A:ASN162>
0

> <HydrogenBond A:LYS163>
0

> <HydrogenBond A:SER167>
0

> <HydrogenBond A:ASP168>
0

> <HydrogenBond A:SER169>
0

> <HydrogenBond A:ASN171>
0

> <HydrogenBond A:PHE172>
0

> <HydrogenBond A:THR173>
0

> <HydrogenBond A:ARG174>
0

> <HydrogenBond A:PHE175>
0

> <HydrogenBond A:SER176>
0

> <HydrogenBond A:SER177>
0

> <HydrogenBond A:ILE179>
0

> <HydrogenBond A:VAL180>
0

> <HydrogenBond A:SER183>
1

> <HydrogenBond A:THR184>
0

> <HydrogenBond A:PHE186>
0

> <HydrogenBond A:ILE187>
0

> <HydrogenBond A:PRO190>
0

> <HydrogenBond A:TYR240>
0

> <HydrogenBond A:PHE243>
0

> <HydrogenBond A:SER244>
0

> <HydrogenBond A:PHE247>
0

> <HydrogenBond A:VAL251>
0

> <HydrogenBond A:SER254>
0

> <HydrogenBond A:GLU255>
0

> <HydrogenBond A:ARG256>
0

> <HydrogenBond A:LEU257>
0

> <HydrogenBond A:GLU258>
0

> <HydrogenBond A:GLU259>
0

> <HydrogenBond A:ILE262>
0

> <HydrogenBond A:SER265>
0

> <HydrogenBond A:GLN266>
0

> <HydrogenBond A:MET268>
0

> <HydrogenBond A:GLY269>
0

> <HydrogenBond A:PRO273>
0

> <Other A:SER69>
0

> <Other A:TRP89>
0

> <Other A:TYR159>
0

> <Other A:PHE172>
0

> <Other A:SER176>
0

> <Other A:SER265>
0

$$$$
736756
  SciTegic09122300493D

 28 30  0  0  0  0            999 V2000
    3.9278    2.1237    1.0027 O   0  0  0  1  0  0
    8.8482    0.5937    1.6584 O   0  0  0  1  0  0
    5.5882    0.5263    0.9289 N   0  0  0  1  0  0
    7.2039    1.8982    2.4522 N   0  0  0  1  0  0
    6.5912   -0.2282    1.6987 C   0  0  1  1  0  0
    5.7661    2.0847    2.6635 C   0  0  1  1  0  0
    7.0761   -1.3344    0.7953 C   0  0  0  1  0  0
    5.7478    3.5486    2.9758 C   0  0  0  1  0  0
    5.4573    0.1138   -0.4410 C   0  0  0  1  0  0
    8.0074    3.1093    2.3986 C   0  0  0  1  0  0
    4.9739    1.6216    1.4303 C   0  0  0  1  0  0
    7.6911    0.7653    1.9606 C   0  0  0  1  0  0
    6.5691   -0.9099   -0.5651 C   0  0  0  1  0  0
    6.9353    4.1756    2.3697 C   0  0  0  1  0  0
    6.1902   -0.6097    2.6391 H   0  0
    5.3866    1.4733    3.4816 H   0  0
    8.1509   -1.5057    0.7993 H   0  0
    6.6412   -2.2876    1.0792 H   0  0
    4.8048    4.0274    2.8068 H   0  0
    6.0158    3.6685    4.0101 H   0  0
    5.6134    0.9555   -1.1187 H   0  0
    4.4794   -0.3026   -0.6411 H   0  0
    8.6146    3.1236    1.4929 H   0  0
    8.6816    3.2112    3.2496 H   0  0
    6.1904   -1.8224   -0.9734 H   0  0
    7.3780   -0.4659   -1.1451 H   0  0
    7.1682    5.0348    3.0024 H   0  0
    6.7185    4.4453    1.3407 H   0  0
  1 11  2  0
  2 12  2  0
  3  5  1  0
  3  9  1  0
  3 11  1  0
  4  6  1  0
  4 10  1  0
  4 12  1  0
  5  7  1  0
  5 12  1  0
  6  8  1  0
  6 11  1  0
  7 13  1  0
  8 14  1  0
  9 13  1  0
 10 14  1  0
  5 15  1  0
  6 16  1  0
  7 17  1  0
  7 18  1  0
  8 19  1  0
  8 20  1  0
  9 21  1  0
  9 22  1  0
 10 23  1  0
 10 24  1  0
 13 25  1  0
 13 26  1  0
 14 27  1  0
 14 28  1  0
M  END
> <Name>
736756

> <Binding Energy>
-12.0037

> <Ligand Energy>
49.3605

> <Protein Energy>
-7801.1566

> <Complex Energy>
-7763.7999

> <Complex Entropy>
-31.4768

> <Protein Entropy>
-31.4717

> <Ligand Entropy>
-17.9553

> <Entropic Energy>
17.9502

> <AbsoluteEnergy>
26.1087

> <ConfNumber>
3

> <IonizationIndex>
1

> <MOL_NUMBER>
110

> <NumberOfIonizations>
1

> <NumberOfStereoisomers>
1

> <NumberOfTautomers>
1

> <PUBCHEM_ATOM_DEF_STEREO_COUNT>
2

> <PUBCHEM_ATOM_UDEF_STEREO_COUNT>
0

> <PUBCHEM_BOND_DEF_STEREO_COUNT>
0

> <PUBCHEM_BOND_UDEF_STEREO_COUNT>
0

> <PUBCHEM_CACTVS_TAUTO_COUNT>
1

> <PUBCHEM_COMPONENT_COUNT>
1

> <PUBCHEM_COMPOUND_CID>
736756

> <PUBCHEM_CONFORMER_DIVERSEORDER>
1

> <PUBCHEM_CONFORMER_ID>
000B3DF400000001

> <PUBCHEM_CONFORMER_RMSD>
0.4

> <PUBCHEM_COORDINATE_TYPE>
2
5
10

> <PUBCHEM_EFFECTIVE_ROTOR_COUNT>
1.2

> <PUBCHEM_FEATURE_SELFOVERLAP>
25.572

> <PUBCHEM_HEAVY_ATOM_COUNT>
14

> <PUBCHEM_ISOTOPIC_ATOM_COUNT>
0

> <PUBCHEM_MMFF94_ENERGY>
42.7133

> <PUBCHEM_MMFF94_PARTIAL_CHARGES>
10
1 -0.57
10 0.3
11 0.57
12 0.57
2 -0.57
3 -0.66
4 -0.66
5 0.36
6 0.36
9 0.3

> <PUBCHEM_PHARMACOPHORE_FEATURES>
5
1 1 acceptor
1 2 acceptor
5 3 5 7 9 13 rings
5 4 6 8 10 14 rings
6 3 4 5 6 11 12 rings

> <PUBCHEM_SHAPE_FINGERPRINT>
10219947 1 18411140242446000777
10608611 8 18410569595716415416
10967382 1 18410573967976921707
11132069 177 18411694387510756520
11206711 2 18122353380314199244
11471102 20 18411415077777935093
12032990 46 18410300206772206107
12423570 1 11973153431476444378
12524768 44 18413111684016780706
12897270 3 18338516313809399741
13140716 1 18338516343868883464
13897977 150 18338514136408784085
14251717 144 18412538838743546247
14325111 11 18411418422971837769
14614273 12 18044087956368539429
14993402 34 18410575131912994119
15219459 52 18263648535565306396
15775835 57 18409451388085171059
16945 1 18122624942242529331
17844478 74 18187094965867696617
193761 8 17762056944480157722
20201158 50 18411418380032740255
20511035 2 17841149166915934596
20588541 1 18411141303139483475
20645476 183 17604727662875361150
21501502 16 18050567648852318647
22802520 49 18127705819998049982
2334 1 18410855485897965618
23402539 116 18342444946523680910
23402655 69 18268695135978044085
23419403 2 15898893749212017187
23463225 33 18335417941792996074
23559900 14 18341895139887791870
25 1 18191296092534237005
2748010 2 18410855460128161855
353137 74 18192428576098501529
5084963 1 18129945692734903483
528886 8 18411976940645545339
53812653 166 18413105056665841977
63268167 104 18272091599508276563
7364860 26 18124597749587087912
8809292 202 18261399935528838419

> <PUBCHEM_SHAPE_MULTIPOLES>
266.41
4.68
2.23
0.68
0
0
0.02
0
-0.17
0
-0.23
0
0
0.32

> <PUBCHEM_SHAPE_SELFOVERLAP>
573.23

> <PUBCHEM_SHAPE_VOLUME>
148.3

> <RelativeEnergy>
4.78729

> <StereoisomerIndex>
1

> <TautomerIndex>
1

> <POSE_NUMBER>
1

> <LibDockScore>
70.3326

> <HotSpots>
6.61,-0.93,-0.06,A,65,7
4.81,0.47,-1.05,A,56,9
6.61,4.27,3.15,A,86,14

> <-In-Situ Starting Energy>
-106002.157

> <-In-Situ Final Energy>
-30.7227516

> <In-Situ Gradient>
0.0009783518317

> <Favorable Total>
8

> <Unfavorable Total>
0

> <Charge Total>
0

> <Hydrophobic Total>
6

> <HydrogenBond Total>
2

> <Other Total>
0

> <Favorable A:LYS6>
0

> <Favorable A:ARG55>
2

> <Favorable A:LEU58>
0

> <Favorable A:LEU61>
0

> <Favorable A:ILE62>
0

> <Favorable A:GLY64>
0

> <Favorable A:SER65>
0

> <Favorable A:TRP66>
0

> <Favorable A:SER69>
0

> <Favorable A:VAL70>
0

> <Favorable A:PRO73>
0

> <Favorable A:ALA74>
0

> <Favorable A:PHE76>
0

> <Favorable A:ALA77>
0

> <Favorable A:THR78>
0

> <Favorable A:GLU79>
0

> <Favorable A:PHE82>
0

> <Favorable A:ARG83>
0

> <Favorable A:LEU85>
0

> <Favorable A:THR86>
0

> <Favorable A:TRP89>
0

> <Favorable A:THR90>
0

> <Favorable A:ASN93>
0

> <Favorable A:HIS94>
0

> <Favorable A:SER96>
0

> <Favorable A:VAL97>
1

> <Favorable A:TRP98>
0

> <Favorable A:PHE140>
0

> <Favorable A:LEU141>
0

> <Favorable A:ASN144>
0

> <Favorable A:ILE148>
0

> <Favorable A:ILE150>
0

> <Favorable A:HIS151>
0

> <Favorable A:ILE152>
0

> <Favorable A:ALA154>
0

> <Favorable A:SER155>
0

> <Favorable A:ILE156>
0

> <Favorable A:GLY158>
0

> <Favorable A:TYR159>
0

> <Favorable A:ARG160>
0

> <Favorable A:ARG161>
0

> <Favorable A:ASN162>
0

> <Favorable A:LYS163>
0

> <Favorable A:SER167>
0

> <Favorable A:ASP168>
0

> <Favorable A:SER169>
0

> <Favorable A:ASN171>
0

> <Favorable A:PHE172>
0

> <Favorable A:THR173>
0

> <Favorable A:ARG174>
0

> <Favorable A:PHE175>
0

> <Favorable A:SER176>
0

> <Favorable A:SER177>
0

> <Favorable A:LEU178>
0

> <Favorable A:ILE179>
0

> <Favorable A:VAL180>
0

> <Favorable A:LEU181>
0

> <Favorable A:SER183>
0

> <Favorable A:THR184>
0

> <Favorable A:PHE186>
0

> <Favorable A:ILE187>
1

> <Favorable A:PHE188>
0

> <Favorable A:ILE189>
0

> <Favorable A:PRO190>
0

> <Favorable A:PHE191>
0

> <Favorable A:TYR240>
1

> <Favorable A:PHE243>
0

> <Favorable A:SER244>
0

> <Favorable A:PHE247>
1

> <Favorable A:PHE248>
0

> <Favorable A:VAL251>
0

> <Favorable A:TRP252>
0

> <Favorable A:SER254>
0

> <Favorable A:GLU255>
0

> <Favorable A:ARG256>
0

> <Favorable A:LEU257>
0

> <Favorable A:GLU258>
0

> <Favorable A:GLU259>
0

> <Favorable A:LEU261>
0

> <Favorable A:ILE262>
0

> <Favorable A:ILE263>
0

> <Favorable A:SER265>
0

> <Favorable A:GLN266>
0

> <Favorable A:MET268>
0

> <Favorable A:GLY269>
0

> <Favorable A:TYR272>
1

> <Favorable A:PRO273>
1

> <Unfavorable A:ARG55>
0

> <Unfavorable A:PRO73>
0

> <Unfavorable A:PHE76>
0

> <Unfavorable A:GLU79>
0

> <Unfavorable A:ARG83>
0

> <Unfavorable A:THR86>
0

> <Unfavorable A:TRP89>
0

> <Unfavorable A:THR90>
0

> <Unfavorable A:ASN93>
0

> <Unfavorable A:TRP98>
0

> <Unfavorable A:ASN144>
0

> <Unfavorable A:SER155>
0

> <Unfavorable A:GLY158>
0

> <Unfavorable A:TYR159>
0

> <Unfavorable A:ASN162>
0

> <Unfavorable A:ASP168>
0

> <Unfavorable A:ASN171>
0

> <Unfavorable A:THR173>
0

> <Unfavorable A:ARG174>
0

> <Unfavorable A:SER183>
0

> <Unfavorable A:THR184>
0

> <Unfavorable A:PHE186>
0

> <Unfavorable A:SER244>
0

> <Unfavorable A:SER254>
0

> <Unfavorable A:GLU255>
0

> <Unfavorable A:SER265>
0

> <Unfavorable A:GLN266>
0

> <Unfavorable A:GLY269>
0

> <Charge A:ARG55>
0

> <Charge A:PHE76>
0

> <Charge A:GLU79>
0

> <Charge A:PHE82>
0

> <Charge A:ARG83>
0

> <Charge A:TRP89>
0

> <Charge A:HIS94>
0

> <Charge A:TRP98>
0

> <Charge A:TYR159>
0

> <Charge A:ARG161>
0

> <Charge A:LYS163>
0

> <Charge A:ASP168>
0

> <Charge A:PHE172>
0

> <Charge A:ARG174>
0

> <Charge A:PHE175>
0

> <Charge A:PHE188>
0

> <Charge A:PHE247>
0

> <Charge A:PHE248>
0

> <Hydrophobic A:LEU58>
0

> <Hydrophobic A:LEU61>
0

> <Hydrophobic A:ILE62>
0

> <Hydrophobic A:TRP66>
0

> <Hydrophobic A:VAL70>
0

> <Hydrophobic A:PRO73>
0

> <Hydrophobic A:ALA74>
0

> <Hydrophobic A:PHE76>
0

> <Hydrophobic A:ALA77>
0

> <Hydrophobic A:THR78>
0

> <Hydrophobic A:PHE82>
0

> <Hydrophobic A:ARG83>
0

> <Hydrophobic A:LEU85>
0

> <Hydrophobic A:TRP89>
0

> <Hydrophobic A:THR90>
0

> <Hydrophobic A:ASN93>
0

> <Hydrophobic A:HIS94>
0

> <Hydrophobic A:VAL97>
1

> <Hydrophobic A:TRP98>
0

> <Hydrophobic A:PHE140>
0

> <Hydrophobic A:LEU141>
0

> <Hydrophobic A:ILE148>
0

> <Hydrophobic A:ILE150>
0

> <Hydrophobic A:HIS151>
0

> <Hydrophobic A:ILE152>
0

> <Hydrophobic A:ALA154>
0

> <Hydrophobic A:SER155>
0

> <Hydrophobic A:ILE156>
0

> <Hydrophobic A:GLY158>
0

> <Hydrophobic A:TYR159>
0

> <Hydrophobic A:ARG160>
0

> <Hydrophobic A:ARG161>
0

> <Hydrophobic A:ASP168>
0

> <Hydrophobic A:ASN171>
0

> <Hydrophobic A:PHE172>
0

> <Hydrophobic A:ARG174>
0

> <Hydrophobic A:PHE175>
0

> <Hydrophobic A:LEU178>
0

> <Hydrophobic A:ILE179>
0

> <Hydrophobic A:VAL180>
0

> <Hydrophobic A:LEU181>
0

> <Hydrophobic A:PHE186>
0

> <Hydrophobic A:ILE187>
1

> <Hydrophobic A:PHE188>
0

> <Hydrophobic A:ILE189>
0

> <Hydrophobic A:PRO190>
0

> <Hydrophobic A:PHE191>
0

> <Hydrophobic A:TYR240>
1

> <Hydrophobic A:PHE243>
0

> <Hydrophobic A:PHE247>
1

> <Hydrophobic A:PHE248>
0

> <Hydrophobic A:VAL251>
0

> <Hydrophobic A:TRP252>
0

> <Hydrophobic A:SER254>
0

> <Hydrophobic A:LEU261>
0

> <Hydrophobic A:ILE262>
0

> <Hydrophobic A:ILE263>
0

> <Hydrophobic A:TYR272>
1

> <Hydrophobic A:PRO273>
1

> <HydrogenBond A:LYS6>
0

> <HydrogenBond A:ARG55>
2

> <HydrogenBond A:GLY64>
0

> <HydrogenBond A:SER65>
0

> <HydrogenBond A:TRP66>
0

> <HydrogenBond A:SER69>
0

> <HydrogenBond A:PRO73>
0

> <HydrogenBond A:ALA74>
0

> <HydrogenBond A:PHE76>
0

> <HydrogenBond A:ALA77>
0

> <HydrogenBond A:THR78>
0

> <HydrogenBond A:GLU79>
0

> <HydrogenBond A:PHE82>
0

> <HydrogenBond A:ARG83>
0

> <HydrogenBond A:LEU85>
0

> <HydrogenBond A:THR86>
0

> <HydrogenBond A:TRP89>
0

> <HydrogenBond A:THR90>
0

> <HydrogenBond A:ASN93>
0

> <HydrogenBond A:HIS94>
0

> <HydrogenBond A:SER96>
0

> <HydrogenBond A:TRP98>
0

> <HydrogenBond A:ASN144>
0

> <HydrogenBond A:HIS151>
0

> <HydrogenBond A:ILE152>
0

> <HydrogenBond A:ALA154>
0

> <HydrogenBond A:SER155>
0

> <HydrogenBond A:ILE156>
0

> <HydrogenBond A:GLY158>
0

> <HydrogenBond A:TYR159>
0

> <HydrogenBond A:ASN162>
0

> <HydrogenBond A:LYS163>
0

> <HydrogenBond A:SER167>
0

> <HydrogenBond A:ASP168>
0

> <HydrogenBond A:SER169>
0

> <HydrogenBond A:ASN171>
0

> <HydrogenBond A:PHE172>
0

> <HydrogenBond A:THR173>
0

> <HydrogenBond A:ARG174>
0

> <HydrogenBond A:PHE175>
0

> <HydrogenBond A:SER176>
0

> <HydrogenBond A:SER177>
0

> <HydrogenBond A:ILE179>
0

> <HydrogenBond A:VAL180>
0

> <HydrogenBond A:SER183>
0

> <HydrogenBond A:THR184>
0

> <HydrogenBond A:PHE186>
0

> <HydrogenBond A:ILE187>
0

> <HydrogenBond A:PRO190>
0

> <HydrogenBond A:TYR240>
0

> <HydrogenBond A:PHE243>
0

> <HydrogenBond A:SER244>
0

> <HydrogenBond A:PHE247>
0

> <HydrogenBond A:VAL251>
0

> <HydrogenBond A:SER254>
0

> <HydrogenBond A:GLU255>
0

> <HydrogenBond A:ARG256>
0

> <HydrogenBond A:LEU257>
0

> <HydrogenBond A:GLU258>
0

> <HydrogenBond A:GLU259>
0

> <HydrogenBond A:ILE262>
0

> <HydrogenBond A:SER265>
0

> <HydrogenBond A:GLN266>
0

> <HydrogenBond A:MET268>
0

> <HydrogenBond A:GLY269>
0

> <HydrogenBond A:PRO273>
0

> <Other A:SER69>
0

> <Other A:TRP89>
0

> <Other A:TYR159>
0

> <Other A:PHE172>
0

> <Other A:SER176>
0

> <Other A:SER265>
0

$$$$
927723
  SciTegic09122300493D

 26 26  0  0  0  0            999 V2000
    7.9751   -0.4046   -0.5064 O   0  0  0  1  0  0
    3.6759    2.4018   -0.4607 O   0  0  0  1  0  0
    5.9388    2.5980   -0.5602 N   0  0  0  1  0  0
    5.9199   -0.0801   -1.3822 N   0  0  0  1  0  0
    7.2114    1.8926   -0.7221 C   0  0  1  1  0  0
    8.0739    2.2152    0.4988 C   0  0  0  1  0  0
    7.4252    2.0518    1.8874 C   0  0  0  1  0  0
    7.0826    0.3466   -0.8664 C   0  0  0  1  0  0
    6.7963    3.3619    2.4021 C   0  0  0  1  0  0
    6.4849    0.8294    2.0320 C   0  0  0  1  0  0
    4.9304    0.8646   -1.8532 C   0  0  0  1  0  0
    4.7681    2.0477   -0.8954 C   0  0  0  1  0  0
    5.9108    3.4826   -0.1023 H   0  0
    5.8006   -1.0623   -1.5425 H   0  0
    7.6709    2.2808   -1.6313 H   0  0
    8.9429    1.5723    0.4738 H   0  0
    8.4634    3.2214    0.3914 H   0  0
    8.2971    1.8586    2.5082 H   0  0
    6.3667    3.9572    1.6039 H   0  0
    7.5489    3.9887    2.8815 H   0  0
    6.0019    3.1931    3.1267 H   0  0
    7.0222   -0.0997    1.8384 H   0  0
    5.6363    0.8755    1.3564 H   0  0
    6.0382    0.7262    3.0177 H   0  0
    5.3053    1.2258   -2.8105 H   0  0
    3.9987    0.3159   -1.9751 H   0  0
  1  8  2  0
  2 12  2  0
  3  5  1  0
  3 12  1  0
  4  8  1  0
  4 11  1  0
  5  6  1  0
  5  8  1  0
  6  7  1  0
  7  9  1  0
  7 10  1  0
 11 12  1  0
  3 13  1  0
  4 14  1  0
  5 15  1  0
  6 16  1  0
  6 17  1  0
  7 18  1  0
  9 19  1  0
  9 20  1  0
  9 21  1  0
 10 22  1  0
 10 23  1  0
 10 24  1  0
 11 25  1  0
 11 26  1  0
M  END
> <Name>
927723

> <Binding Energy>
-30.3109

> <Ligand Energy>
-6.0298

> <Protein Energy>
-7801.1566

> <Complex Energy>
-7837.4974

> <Complex Entropy>
-31.4761

> <Protein Entropy>
-31.4717

> <Ligand Entropy>
-17.6726

> <Entropic Energy>
17.6682

> <AbsoluteEnergy>
20.0898

> <ConfNumber>
25

> <IonizationIndex>
1

> <MOL_NUMBER>
111

> <NumberOfIonizations>
1

> <NumberOfStereoisomers>
1

> <NumberOfTautomers>
1

> <PUBCHEM_ATOM_DEF_STEREO_COUNT>
1

> <PUBCHEM_ATOM_UDEF_STEREO_COUNT>
0

> <PUBCHEM_BOND_DEF_STEREO_COUNT>
0

> <PUBCHEM_BOND_UDEF_STEREO_COUNT>
0

> <PUBCHEM_CACTVS_TAUTO_COUNT>
4

> <PUBCHEM_COMPONENT_COUNT>
1

> <PUBCHEM_COMPOUND_CID>
927723

> <PUBCHEM_CONFORMER_DIVERSEORDER>
1
2
3

> <PUBCHEM_CONFORMER_ID>
000E27EB00000001

> <PUBCHEM_CONFORMER_RMSD>
0.6

> <PUBCHEM_COORDINATE_TYPE>
2
5
10

> <PUBCHEM_EFFECTIVE_ROTOR_COUNT>
2.8

> <PUBCHEM_FEATURE_SELFOVERLAP>
30.454

> <PUBCHEM_HEAVY_ATOM_COUNT>
12

> <PUBCHEM_ISOTOPIC_ATOM_COUNT>
0

> <PUBCHEM_MMFF94_ENERGY>
39.3968

> <PUBCHEM_MMFF94_PARTIAL_CHARGES>
10
1 -0.57
11 0.36
12 0.57
17 0.37
2 -0.57
26 0.37
3 -0.73
4 -0.73
5 0.36
8 0.57

> <PUBCHEM_PHARMACOPHORE_FEATURES>
6
1 1 acceptor
1 2 acceptor
1 3 donor
1 4 donor
3 7 9 10 hydrophobe
6 3 4 5 8 11 12 rings

> <PUBCHEM_SHAPE_FINGERPRINT>
100427 49 17980187913964256865
12524768 44 18268708479591878822
13024252 1 16225764107959018011
15775835 57 18262808345726148872
16945 1 18410006620124740882
18185500 45 18119527888717879475
19973954 147 18412823620776541840
20645464 45 18059278886691086402
20871998 184 18412271639942897103
21040471 1 18194109716745416800
21501502 16 18340771545897994854
23388829 49 17335897267130624599
23526114 1 16538193979118885615
23552423 10 18189052169505826190
23559900 14 18055916495057531862
241688 4 18265047118666583704
2748010 2 18195240242126477830
369184 2 11458416938458296178
5084963 1 17916575449600907856
54338 74 18265321979668003795
81228 2 18340476876391711779

> <PUBCHEM_SHAPE_MULTIPOLES>
225.25
3.72
2.32
0.86
2.47
0.14
0.05
0.02
0.19
-1.27
-0.32
0.11
0.03
0.15

> <PUBCHEM_SHAPE_SELFOVERLAP>
448.569

> <PUBCHEM_SHAPE_VOLUME>
132.4

> <RelativeEnergy>
11.1309

> <StereoisomerIndex>
1

> <TautomerIndex>
1

> <POSE_NUMBER>
1

> <LibDockScore>
68.4742

> <HotSpots>
7.81,2.67,0.94,A,73,6
6.01,1.67,2.54,A,83,10
4.81,0.47,-1.05,A,56,11

> <-In-Situ Starting Energy>
-1128.67087

> <-In-Situ Final Energy>
28.3336893

> <In-Situ Gradient>
0.0008774956081

> <Favorable Total>
10

> <Unfavorable Total>
0

> <Charge Total>
0

> <Hydrophobic Total>
4

> <HydrogenBond Total>
6

> <Other Total>
0

> <Favorable A:LYS6>
0

> <Favorable A:ARG55>
2

> <Favorable A:LEU58>
0

> <Favorable A:LEU61>
0

> <Favorable A:ILE62>
0

> <Favorable A:GLY64>
0

> <Favorable A:SER65>
0

> <Favorable A:TRP66>
0

> <Favorable A:SER69>
0

> <Favorable A:VAL70>
0

> <Favorable A:PRO73>
0

> <Favorable A:ALA74>
0

> <Favorable A:PHE76>
0

> <Favorable A:ALA77>
0

> <Favorable A:THR78>
0

> <Favorable A:GLU79>
0

> <Favorable A:PHE82>
0

> <Favorable A:ARG83>
0

> <Favorable A:LEU85>
0

> <Favorable A:THR86>
0

> <Favorable A:TRP89>
0

> <Favorable A:THR90>
0

> <Favorable A:ASN93>
1

> <Favorable A:HIS94>
0

> <Favorable A:SER96>
1

> <Favorable A:VAL97>
1

> <Favorable A:TRP98>
0

> <Favorable A:PHE140>
0

> <Favorable A:LEU141>
0

> <Favorable A:ASN144>
0

> <Favorable A:ILE148>
0

> <Favorable A:ILE150>
0

> <Favorable A:HIS151>
0

> <Favorable A:ILE152>
0

> <Favorable A:ALA154>
0

> <Favorable A:SER155>
0

> <Favorable A:ILE156>
0

> <Favorable A:GLY158>
0

> <Favorable A:TYR159>
0

> <Favorable A:ARG160>
0

> <Favorable A:ARG161>
0

> <Favorable A:ASN162>
0

> <Favorable A:LYS163>
0

> <Favorable A:SER167>
0

> <Favorable A:ASP168>
0

> <Favorable A:SER169>
0

> <Favorable A:ASN171>
0

> <Favorable A:PHE172>
0

> <Favorable A:THR173>
0

> <Favorable A:ARG174>
0

> <Favorable A:PHE175>
0

> <Favorable A:SER176>
0

> <Favorable A:SER177>
0

> <Favorable A:LEU178>
0

> <Favorable A:ILE179>
0

> <Favorable A:VAL180>
0

> <Favorable A:LEU181>
0

> <Favorable A:SER183>
0

> <Favorable A:THR184>
0

> <Favorable A:PHE186>
0

> <Favorable A:ILE187>
1

> <Favorable A:PHE188>
0

> <Favorable A:ILE189>
0

> <Favorable A:PRO190>
0

> <Favorable A:PHE191>
0

> <Favorable A:TYR240>
1

> <Favorable A:PHE243>
0

> <Favorable A:SER244>
0

> <Favorable A:PHE247>
0

> <Favorable A:PHE248>
0

> <Favorable A:VAL251>
0

> <Favorable A:TRP252>
0

> <Favorable A:SER254>
0

> <Favorable A:GLU255>
0

> <Favorable A:ARG256>
0

> <Favorable A:LEU257>
0

> <Favorable A:GLU258>
0

> <Favorable A:GLU259>
0

> <Favorable A:LEU261>
0

> <Favorable A:ILE262>
0

> <Favorable A:ILE263>
0

> <Favorable A:SER265>
0

> <Favorable A:GLN266>
0

> <Favorable A:MET268>
0

> <Favorable A:GLY269>
2

> <Favorable A:TYR272>
1

> <Favorable A:PRO273>
0

> <Unfavorable A:ARG55>
0

> <Unfavorable A:PRO73>
0

> <Unfavorable A:PHE76>
0

> <Unfavorable A:GLU79>
0

> <Unfavorable A:ARG83>
0

> <Unfavorable A:THR86>
0

> <Unfavorable A:TRP89>
0

> <Unfavorable A:THR90>
0

> <Unfavorable A:ASN93>
0

> <Unfavorable A:TRP98>
0

> <Unfavorable A:ASN144>
0

> <Unfavorable A:SER155>
0

> <Unfavorable A:GLY158>
0

> <Unfavorable A:TYR159>
0

> <Unfavorable A:ASN162>
0

> <Unfavorable A:ASP168>
0

> <Unfavorable A:ASN171>
0

> <Unfavorable A:THR173>
0

> <Unfavorable A:ARG174>
0

> <Unfavorable A:SER183>
0

> <Unfavorable A:THR184>
0

> <Unfavorable A:PHE186>
0

> <Unfavorable A:SER244>
0

> <Unfavorable A:SER254>
0

> <Unfavorable A:GLU255>
0

> <Unfavorable A:SER265>
0

> <Unfavorable A:GLN266>
0

> <Unfavorable A:GLY269>
0

> <Charge A:ARG55>
0

> <Charge A:PHE76>
0

> <Charge A:GLU79>
0

> <Charge A:PHE82>
0

> <Charge A:ARG83>
0

> <Charge A:TRP89>
0

> <Charge A:HIS94>
0

> <Charge A:TRP98>
0

> <Charge A:TYR159>
0

> <Charge A:ARG161>
0

> <Charge A:LYS163>
0

> <Charge A:ASP168>
0

> <Charge A:PHE172>
0

> <Charge A:ARG174>
0

> <Charge A:PHE175>
0

> <Charge A:PHE188>
0

> <Charge A:PHE247>
0

> <Charge A:PHE248>
0

> <Hydrophobic A:LEU58>
0

> <Hydrophobic A:LEU61>
0

> <Hydrophobic A:ILE62>
0

> <Hydrophobic A:TRP66>
0

> <Hydrophobic A:VAL70>
0

> <Hydrophobic A:PRO73>
0

> <Hydrophobic A:ALA74>
0

> <Hydrophobic A:PHE76>
0

> <Hydrophobic A:ALA77>
0

> <Hydrophobic A:THR78>
0

> <Hydrophobic A:PHE82>
0

> <Hydrophobic A:ARG83>
0

> <Hydrophobic A:LEU85>
0

> <Hydrophobic A:TRP89>
0

> <Hydrophobic A:THR90>
0

> <Hydrophobic A:ASN93>
0

> <Hydrophobic A:HIS94>
0

> <Hydrophobic A:VAL97>
1

> <Hydrophobic A:TRP98>
0

> <Hydrophobic A:PHE140>
0

> <Hydrophobic A:LEU141>
0

> <Hydrophobic A:ILE148>
0

> <Hydrophobic A:ILE150>
0

> <Hydrophobic A:HIS151>
0

> <Hydrophobic A:ILE152>
0

> <Hydrophobic A:ALA154>
0

> <Hydrophobic A:SER155>
0

> <Hydrophobic A:ILE156>
0

> <Hydrophobic A:GLY158>
0

> <Hydrophobic A:TYR159>
0

> <Hydrophobic A:ARG160>
0

> <Hydrophobic A:ARG161>
0

> <Hydrophobic A:ASP168>
0

> <Hydrophobic A:ASN171>
0

> <Hydrophobic A:PHE172>
0

> <Hydrophobic A:ARG174>
0

> <Hydrophobic A:PHE175>
0

> <Hydrophobic A:LEU178>
0

> <Hydrophobic A:ILE179>
0

> <Hydrophobic A:VAL180>
0

> <Hydrophobic A:LEU181>
0

> <Hydrophobic A:PHE186>
0

> <Hydrophobic A:ILE187>
1

> <Hydrophobic A:PHE188>
0

> <Hydrophobic A:ILE189>
0

> <Hydrophobic A:PRO190>
0

> <Hydrophobic A:PHE191>
0

> <Hydrophobic A:TYR240>
1

> <Hydrophobic A:PHE243>
0

> <Hydrophobic A:PHE247>
0

> <Hydrophobic A:PHE248>
0

> <Hydrophobic A:VAL251>
0

> <Hydrophobic A:TRP252>
0

> <Hydrophobic A:SER254>
0

> <Hydrophobic A:LEU261>
0

> <Hydrophobic A:ILE262>
0

> <Hydrophobic A:ILE263>
0

> <Hydrophobic A:TYR272>
1

> <Hydrophobic A:PRO273>
0

> <HydrogenBond A:LYS6>
0

> <HydrogenBond A:ARG55>
2

> <HydrogenBond A:GLY64>
0

> <HydrogenBond A:SER65>
0

> <HydrogenBond A:TRP66>
0

> <HydrogenBond A:SER69>
0

> <HydrogenBond A:PRO73>
0

> <HydrogenBond A:ALA74>
0

> <HydrogenBond A:PHE76>
0

> <HydrogenBond A:ALA77>
0

> <HydrogenBond A:THR78>
0

> <HydrogenBond A:GLU79>
0

> <HydrogenBond A:PHE82>
0

> <HydrogenBond A:ARG83>
0

> <HydrogenBond A:LEU85>
0

> <HydrogenBond A:THR86>
0

> <HydrogenBond A:TRP89>
0

> <HydrogenBond A:THR90>
0

> <HydrogenBond A:ASN93>
1

> <HydrogenBond A:HIS94>
0

> <HydrogenBond A:SER96>
1

> <HydrogenBond A:TRP98>
0

> <HydrogenBond A:ASN144>
0

> <HydrogenBond A:HIS151>
0

> <HydrogenBond A:ILE152>
0

> <HydrogenBond A:ALA154>
0

> <HydrogenBond A:SER155>
0

> <HydrogenBond A:ILE156>
0

> <HydrogenBond A:GLY158>
0

> <HydrogenBond A:TYR159>
0

> <HydrogenBond A:ASN162>
0

> <HydrogenBond A:LYS163>
0

> <HydrogenBond A:SER167>
0

> <HydrogenBond A:ASP168>
0

> <HydrogenBond A:SER169>
0

> <HydrogenBond A:ASN171>
0

> <HydrogenBond A:PHE172>
0

> <HydrogenBond A:THR173>
0

> <HydrogenBond A:ARG174>
0

> <HydrogenBond A:PHE175>
0

> <HydrogenBond A:SER176>
0

> <HydrogenBond A:SER177>
0

> <HydrogenBond A:ILE179>
0

> <HydrogenBond A:VAL180>
0

> <HydrogenBond A:SER183>
0

> <HydrogenBond A:THR184>
0

> <HydrogenBond A:PHE186>
0

> <HydrogenBond A:ILE187>
0

> <HydrogenBond A:PRO190>
0

> <HydrogenBond A:TYR240>
0

> <HydrogenBond A:PHE243>
0

> <HydrogenBond A:SER244>
0

> <HydrogenBond A:PHE247>
0

> <HydrogenBond A:VAL251>
0

> <HydrogenBond A:SER254>
0

> <HydrogenBond A:GLU255>
0

> <HydrogenBond A:ARG256>
0

> <HydrogenBond A:LEU257>
0

> <HydrogenBond A:GLU258>
0

> <HydrogenBond A:GLU259>
0

> <HydrogenBond A:ILE262>
0

> <HydrogenBond A:SER265>
0

> <HydrogenBond A:GLN266>
0

> <HydrogenBond A:MET268>
0

> <HydrogenBond A:GLY269>
2

> <HydrogenBond A:PRO273>
0

> <Other A:SER69>
0

> <Other A:TRP89>
0

> <Other A:TYR159>
0

> <Other A:PHE172>
0

> <Other A:SER176>
0

> <Other A:SER265>
0

$$$$
3015189
  SciTegic09122300493D

 52 51  0  0  0  0            999 V2000
   11.7259    5.2853  -12.9176 O   0  0  0  1  0  0
   10.7100    1.2330  -14.0512 O   0  0  0  1  0  0
    8.4240    3.6117  -12.5208 O   0  0  0  1  0  0
   11.9001    5.8405   -8.5063 C   0  0  0  1  0  0
   12.0184    5.9180  -10.0290 C   0  0  0  1  0  0
   11.2435    7.0889   -7.9005 C   0  0  0  1  0  0
   12.2645    4.5476  -10.6745 C   0  0  0  1  0  0
   10.7432    6.8004   -6.4709 C   0  0  0  1  0  0
   11.3824    4.3423  -11.9140 C   0  0  2  1  0  0
    9.5917    7.7311   -5.9502 C   0  0  0  1  0  0
    8.9567    7.4978   -4.6058 C   0  0  0  1  0  0
   11.4112    2.8715  -12.3839 C   0  0  0  1  0  0
    7.8431    8.5439   -4.3599 C   0  0  0  1  0  0
   10.4355    2.5257  -13.5320 C   0  0  2  1  0  0
    7.7196    8.9001   -2.8900 C   0  0  0  1  0  0
    6.7697   10.0409   -2.5482 C   0  0  0  1  0  0
    8.9647    2.4301  -13.0768 C   0  0  0  1  0  0
    6.6585   10.2308   -1.0176 C   0  0  0  1  0  0
    6.5566   11.6386   -0.6374 C   0  0  0  1  0  0
    6.5545   12.7925   -0.3407 C   0  0  0  1  0  0
   12.5671    5.0419  -13.2931 H   0  0
   11.6037    1.1692  -14.3742 H   0  0
    8.4748    4.3271  -13.1470 H   0  0
   12.8763    5.6629   -8.0537 H   0  0
   11.2873    4.9728   -8.2615 H   0  0
   12.8047    6.6163  -10.3163 H   0  0
   11.0812    6.3219  -10.4130 H   0  0
   11.9606    7.9069   -7.9172 H   0  0
   10.4317    7.4246   -8.5418 H   0  0
   12.0206    3.7605   -9.9600 H   0  0
   13.3229    4.4164  -10.9017 H   0  0
   11.6279    6.6913   -5.8637 H   0  0
   10.4450    5.7832   -6.3896 H   0  0
   10.3677    4.5766  -11.5995 H   0  0
    9.8896    8.7496   -5.8818 H   0  0
    8.7274    7.7467   -6.5780 H   0  0
    8.5556    6.4856   -4.5493 H   0  0
    9.7376    7.6230   -3.8611 H   0  0
   11.1746    2.2252  -11.5376 H   0  0
   12.4383    2.6225  -12.6514 H   0  0
    6.8896    8.2084   -4.7665 H   0  0
    8.0824    9.4667   -4.8774 H   0  0
   10.5221    3.2656  -14.3344 H   0  0
    7.4141    8.0083   -2.3499 H   0  0
    8.7080    9.2219   -2.5723 H   0  0
    5.8020    9.7999   -2.9670 H   0  0
    7.1095   10.9439   -3.0544 H   0  0
    8.8762    1.6547  -12.3138 H   0  0
    8.3323    2.0978  -13.9066 H   0  0
    5.8069    9.6782   -0.6195 H   0  0
    7.5414    9.8308   -0.5190 H   0  0
    6.5917   13.8085   -0.0546 H   0  0
  1  9  1  0
  2 14  1  0
  3 17  1  0
  4  5  1  0
  4  6  1  0
  5  7  1  0
  6  8  1  0
  7  9  1  0
  8 10  1  0
  9 12  1  0
 10 11  1  0
 11 13  1  0
 12 14  1  0
 13 15  1  0
 14 17  1  0
 15 16  1  0
 16 18  1  0
 18 19  1  0
 19 20  3  0
  1 21  1  0
  2 22  1  0
  3 23  1  0
  4 24  1  0
  4 25  1  0
  5 26  1  0
  5 27  1  0
  6 28  1  0
  6 29  1  0
  7 30  1  0
  7 31  1  0
  8 32  1  0
  8 33  1  0
  9 34  1  0
 10 35  1  0
 10 36  1  0
 11 37  1  0
 11 38  1  0
 12 39  1  0
 12 40  1  0
 13 41  1  0
 13 42  1  0
 14 43  1  0
 15 44  1  0
 15 45  1  0
 16 46  1  0
 16 47  1  0
 17 48  1  0
 17 49  1  0
 18 50  1  0
 18 51  1  0
 20 52  1  0
M  END
> <Name>
3015189

> <Binding Energy>
-28.5248

> <Ligand Energy>
25.6595

> <Protein Energy>
-7801.1566

> <Complex Energy>
-7804.0219

> <Complex Entropy>
-31.481

> <Protein Entropy>
-31.4717

> <Ligand Entropy>
-19.8658

> <Entropic Energy>
19.8565

> <AbsoluteEnergy>
10.2076

> <ConfNumber>
4

> <IonizationIndex>
1

> <MOL_NUMBER>
112

> <NumberOfIonizations>
1

> <NumberOfStereoisomers>
1

> <NumberOfTautomers>
1

> <PUBCHEM_ATOM_DEF_STEREO_COUNT>
0

> <PUBCHEM_ATOM_UDEF_STEREO_COUNT>
2

> <PUBCHEM_BOND_DEF_STEREO_COUNT>
0

> <PUBCHEM_BOND_UDEF_STEREO_COUNT>
0

> <PUBCHEM_CACTVS_TAUTO_COUNT>
1

> <PUBCHEM_COMPONENT_COUNT>
1

> <PUBCHEM_COMPOUND_CID>
3015189

> <PUBCHEM_CONFORMER_DIVERSEORDER>
1
87
20
52
14
57
68
16
17
102
60
18
4
93
41
9
11
54
6
88
70
39
99
26
86
56
96
46
104
40
31
103
5
84
83
77
30
74
43
101
78
27
97
76
15
51
72
79
91
44
29
92
53
47
49
35
10
90
42
85
7
67
12
94
28
45
48
66
71
98
59
80
64
105
73
69
81
34
2
61
63
32
24
19
55
82
100
22
21
3
23
95
75
25
89
8
50
65
36
33
13
37
58
62
38

> <PUBCHEM_CONFORMER_ID>
002E021500000001

> <PUBCHEM_CONFORMER_RMSD>
1.4

> <PUBCHEM_COORDINATE_TYPE>
2
5
10

> <PUBCHEM_EFFECTIVE_ROTOR_COUNT>
14

> <PUBCHEM_FEATURE_SELFOVERLAP>
35.532

> <PUBCHEM_HEAVY_ATOM_COUNT>
20

> <PUBCHEM_ISOTOPIC_ATOM_COUNT>
0

> <PUBCHEM_MMFF94_ENERGY>
14.211

> <PUBCHEM_MMFF94_PARTIAL_CHARGES>
13
1 -0.68
14 0.28
17 0.28
18 0.2
19 -0.2
2 -0.68
20 -0.18
3 -0.68
47 0.4
50 0.4
51 0.4
52 0.18
9 0.28

> <PUBCHEM_PHARMACOPHORE_FEATURES>
7
1 1 acceptor
1 1 donor
1 2 acceptor
1 2 donor
1 20 hydrophobe
1 3 acceptor
1 3 donor

> <PUBCHEM_SHAPE_FINGERPRINT>
11315181 36 17988929990538472707
14123256 10 14979960267900849591
14202775 3 18411706486703791511
14251764 18 13334732427815318902
14251764 46 18410856560504978879
14251920 1 18334576837985602022
15061470 23 18334856121553636981
15510794 2 18334581248379575107
155225 1 18202281446831770952
21362267 313 18114737115050834681
21792934 111 17775279478670388600
232437 2 18333450941461389387
23521765 1 18341896298869286399
23581129 1 18409449184756307847
33684 2 18272652342217798591
67123 10 18273496780317636599
8209 1 18409730669035018583

> <PUBCHEM_SHAPE_MULTIPOLES>
393.98
42.64
1
0.69
39.44
0.07
0.01
0.12
0.55
-1.21
-0.11
-0.43
0.01
0.43

> <PUBCHEM_SHAPE_SELFOVERLAP>
724.287

> <PUBCHEM_SHAPE_VOLUME>
247.6

> <RelativeEnergy>
2.22308

> <StereoisomerIndex>
1

> <TautomerIndex>
1

> <POSE_NUMBER>
7

> <LibDockScore>
116.8695

> <HotSpots>
8.61,9.67,-3.85,A,41,13
9.21,3.67,-12.86,A,26,17
6.41,13.27,0.14,A,69,20

> <-In-Situ Starting Energy>
-1017.50236

> <-In-Situ Final Energy>
0.03041365837

> <In-Situ Gradient>
0.000923256175

> <Favorable Total>
8

> <Unfavorable Total>
0

> <Charge Total>
0

> <Hydrophobic Total>
4

> <HydrogenBond Total>
4

> <Other Total>
0

> <Favorable A:LYS6>
0

> <Favorable A:ARG55>
0

> <Favorable A:LEU58>
0

> <Favorable A:LEU61>
0

> <Favorable A:ILE62>
0

> <Favorable A:GLY64>
0

> <Favorable A:SER65>
1

> <Favorable A:TRP66>
0

> <Favorable A:SER69>
0

> <Favorable A:VAL70>
0

> <Favorable A:PRO73>
0

> <Favorable A:ALA74>
0

> <Favorable A:PHE76>
0

> <Favorable A:ALA77>
0

> <Favorable A:THR78>
0

> <Favorable A:GLU79>
0

> <Favorable A:PHE82>
0

> <Favorable A:ARG83>
0

> <Favorable A:LEU85>
1

> <Favorable A:THR86>
2

> <Favorable A:TRP89>
0

> <Favorable A:THR90>
0

> <Favorable A:ASN93>
0

> <Favorable A:HIS94>
1

> <Favorable A:SER96>
0

> <Favorable A:VAL97>
0

> <Favorable A:TRP98>
2

> <Favorable A:PHE140>
0

> <Favorable A:LEU141>
0

> <Favorable A:ASN144>
0

> <Favorable A:ILE148>
0

> <Favorable A:ILE150>
0

> <Favorable A:HIS151>
0

> <Favorable A:ILE152>
0

> <Favorable A:ALA154>
0

> <Favorable A:SER155>
0

> <Favorable A:ILE156>
0

> <Favorable A:GLY158>
0

> <Favorable A:TYR159>
0

> <Favorable A:ARG160>
0

> <Favorable A:ARG161>
0

> <Favorable A:ASN162>
0

> <Favorable A:LYS163>
0

> <Favorable A:SER167>
0

> <Favorable A:ASP168>
0

> <Favorable A:SER169>
0

> <Favorable A:ASN171>
0

> <Favorable A:PHE172>
0

> <Favorable A:THR173>
0

> <Favorable A:ARG174>
0

> <Favorable A:PHE175>
0

> <Favorable A:SER176>
0

> <Favorable A:SER177>
0

> <Favorable A:LEU178>
0

> <Favorable A:ILE179>
0

> <Favorable A:VAL180>
0

> <Favorable A:LEU181>
0

> <Favorable A:SER183>
0

> <Favorable A:THR184>
0

> <Favorable A:PHE186>
1

> <Favorable A:ILE187>
0

> <Favorable A:PHE188>
0

> <Favorable A:ILE189>
0

> <Favorable A:PRO190>
0

> <Favorable A:PHE191>
0

> <Favorable A:TYR240>
0

> <Favorable A:PHE243>
0

> <Favorable A:SER244>
0

> <Favorable A:PHE247>
0

> <Favorable A:PHE248>
0

> <Favorable A:VAL251>
0

> <Favorable A:TRP252>
0

> <Favorable A:SER254>
0

> <Favorable A:GLU255>
0

> <Favorable A:ARG256>
0

> <Favorable A:LEU257>
0

> <Favorable A:GLU258>
0

> <Favorable A:GLU259>
0

> <Favorable A:LEU261>
0

> <Favorable A:ILE262>
0

> <Favorable A:ILE263>
0

> <Favorable A:SER265>
0

> <Favorable A:GLN266>
0

> <Favorable A:MET268>
0

> <Favorable A:GLY269>
0

> <Favorable A:TYR272>
0

> <Favorable A:PRO273>
0

> <Unfavorable A:ARG55>
0

> <Unfavorable A:PRO73>
0

> <Unfavorable A:PHE76>
0

> <Unfavorable A:GLU79>
0

> <Unfavorable A:ARG83>
0

> <Unfavorable A:THR86>
0

> <Unfavorable A:TRP89>
0

> <Unfavorable A:THR90>
0

> <Unfavorable A:ASN93>
0

> <Unfavorable A:TRP98>
0

> <Unfavorable A:ASN144>
0

> <Unfavorable A:SER155>
0

> <Unfavorable A:GLY158>
0

> <Unfavorable A:TYR159>
0

> <Unfavorable A:ASN162>
0

> <Unfavorable A:ASP168>
0

> <Unfavorable A:ASN171>
0

> <Unfavorable A:THR173>
0

> <Unfavorable A:ARG174>
0

> <Unfavorable A:SER183>
0

> <Unfavorable A:THR184>
0

> <Unfavorable A:PHE186>
0

> <Unfavorable A:SER244>
0

> <Unfavorable A:SER254>
0

> <Unfavorable A:GLU255>
0

> <Unfavorable A:SER265>
0

> <Unfavorable A:GLN266>
0

> <Unfavorable A:GLY269>
0

> <Charge A:ARG55>
0

> <Charge A:PHE76>
0

> <Charge A:GLU79>
0

> <Charge A:PHE82>
0

> <Charge A:ARG83>
0

> <Charge A:TRP89>
0

> <Charge A:HIS94>
0

> <Charge A:TRP98>
0

> <Charge A:TYR159>
0

> <Charge A:ARG161>
0

> <Charge A:LYS163>
0

> <Charge A:ASP168>
0

> <Charge A:PHE172>
0

> <Charge A:ARG174>
0

> <Charge A:PHE175>
0

> <Charge A:PHE188>
0

> <Charge A:PHE247>
0

> <Charge A:PHE248>
0

> <Hydrophobic A:LEU58>
0

> <Hydrophobic A:LEU61>
0

> <Hydrophobic A:ILE62>
0

> <Hydrophobic A:TRP66>
0

> <Hydrophobic A:VAL70>
0

> <Hydrophobic A:PRO73>
0

> <Hydrophobic A:ALA74>
0

> <Hydrophobic A:PHE76>
0

> <Hydrophobic A:ALA77>
0

> <Hydrophobic A:THR78>
0

> <Hydrophobic A:PHE82>
0

> <Hydrophobic A:ARG83>
0

> <Hydrophobic A:LEU85>
0

> <Hydrophobic A:TRP89>
0

> <Hydrophobic A:THR90>
0

> <Hydrophobic A:ASN93>
0

> <Hydrophobic A:HIS94>
1

> <Hydrophobic A:VAL97>
0

> <Hydrophobic A:TRP98>
2

> <Hydrophobic A:PHE140>
0

> <Hydrophobic A:LEU141>
0

> <Hydrophobic A:ILE148>
0

> <Hydrophobic A:ILE150>
0

> <Hydrophobic A:HIS151>
0

> <Hydrophobic A:ILE152>
0

> <Hydrophobic A:ALA154>
0

> <Hydrophobic A:SER155>
0

> <Hydrophobic A:ILE156>
0

> <Hydrophobic A:GLY158>
0

> <Hydrophobic A:TYR159>
0

> <Hydrophobic A:ARG160>
0

> <Hydrophobic A:ARG161>
0

> <Hydrophobic A:ASP168>
0

> <Hydrophobic A:ASN171>
0

> <Hydrophobic A:PHE172>
0

> <Hydrophobic A:ARG174>
0

> <Hydrophobic A:PHE175>
0

> <Hydrophobic A:LEU178>
0

> <Hydrophobic A:ILE179>
0

> <Hydrophobic A:VAL180>
0

> <Hydrophobic A:LEU181>
0

> <Hydrophobic A:PHE186>
1

> <Hydrophobic A:ILE187>
0

> <Hydrophobic A:PHE188>
0

> <Hydrophobic A:ILE189>
0

> <Hydrophobic A:PRO190>
0

> <Hydrophobic A:PHE191>
0

> <Hydrophobic A:TYR240>
0

> <Hydrophobic A:PHE243>
0

> <Hydrophobic A:PHE247>
0

> <Hydrophobic A:PHE248>
0

> <Hydrophobic A:VAL251>
0

> <Hydrophobic A:TRP252>
0

> <Hydrophobic A:SER254>
0

> <Hydrophobic A:LEU261>
0

> <Hydrophobic A:ILE262>
0

> <Hydrophobic A:ILE263>
0

> <Hydrophobic A:TYR272>
0

> <Hydrophobic A:PRO273>
0

> <HydrogenBond A:LYS6>
0

> <HydrogenBond A:ARG55>
0

> <HydrogenBond A:GLY64>
0

> <HydrogenBond A:SER65>
1

> <HydrogenBond A:TRP66>
0

> <HydrogenBond A:SER69>
0

> <HydrogenBond A:PRO73>
0

> <HydrogenBond A:ALA74>
0

> <HydrogenBond A:PHE76>
0

> <HydrogenBond A:ALA77>
0

> <HydrogenBond A:THR78>
0

> <HydrogenBond A:GLU79>
0

> <HydrogenBond A:PHE82>
0

> <HydrogenBond A:ARG83>
0

> <HydrogenBond A:LEU85>
1

> <HydrogenBond A:THR86>
2

> <HydrogenBond A:TRP89>
0

> <HydrogenBond A:THR90>
0

> <HydrogenBond A:ASN93>
0

> <HydrogenBond A:HIS94>
0

> <HydrogenBond A:SER96>
0

> <HydrogenBond A:TRP98>
0

> <HydrogenBond A:ASN144>
0

> <HydrogenBond A:HIS151>
0

> <HydrogenBond A:ILE152>
0

> <HydrogenBond A:ALA154>
0

> <HydrogenBond A:SER155>
0

> <HydrogenBond A:ILE156>
0

> <HydrogenBond A:GLY158>
0

> <HydrogenBond A:TYR159>
0

> <HydrogenBond A:ASN162>
0

> <HydrogenBond A:LYS163>
0

> <HydrogenBond A:SER167>
0

> <HydrogenBond A:ASP168>
0

> <HydrogenBond A:SER169>
0

> <HydrogenBond A:ASN171>
0

> <HydrogenBond A:PHE172>
0

> <HydrogenBond A:THR173>
0

> <HydrogenBond A:ARG174>
0

> <HydrogenBond A:PHE175>
0

> <HydrogenBond A:SER176>
0

> <HydrogenBond A:SER177>
0

> <HydrogenBond A:ILE179>
0

> <HydrogenBond A:VAL180>
0

> <HydrogenBond A:SER183>
0

> <HydrogenBond A:THR184>
0

> <HydrogenBond A:PHE186>
0

> <HydrogenBond A:ILE187>
0

> <HydrogenBond A:PRO190>
0

> <HydrogenBond A:TYR240>
0

> <HydrogenBond A:PHE243>
0

> <HydrogenBond A:SER244>
0

> <HydrogenBond A:PHE247>
0

> <HydrogenBond A:VAL251>
0

> <HydrogenBond A:SER254>
0

> <HydrogenBond A:GLU255>
0

> <HydrogenBond A:ARG256>
0

> <HydrogenBond A:LEU257>
0

> <HydrogenBond A:GLU258>
0

> <HydrogenBond A:GLU259>
0

> <HydrogenBond A:ILE262>
0

> <HydrogenBond A:SER265>
0

> <HydrogenBond A:GLN266>
0

> <HydrogenBond A:MET268>
0

> <HydrogenBond A:GLY269>
0

> <HydrogenBond A:PRO273>
0

> <Other A:SER69>
0

> <Other A:TRP89>
0

> <Other A:TYR159>
0

> <Other A:PHE172>
0

> <Other A:SER176>
0

> <Other A:SER265>
0

$$$$
5281149
  SciTegic09122300493D

 42 41  0  0  0  0            999 V2000
   14.0556    3.4402   -7.5277 O   0  0  0  1  0  0
    6.8686   10.1870   -0.4646 C   0  0  0  1  0  0
    6.6948    9.4878   -1.8101 C   0  0  0  1  0  0
    6.4304   11.6540   -0.5325 C   0  0  0  1  0  0
    7.8250    9.8272   -2.7694 C   0  0  0  1  0  0
    6.7845   12.5700    0.6607 C   0  0  0  1  0  0
    7.5409    9.3326   -4.1759 C   0  0  0  1  0  0
    6.2188   13.9832    0.5880 C   0  0  0  1  0  0
    8.8091    9.1598   -4.9666 C   0  0  0  1  0  0
    9.2583    8.0046   -5.4676 C   0  0  0  1  0  0
    8.7886    6.6591   -5.0187 C   0  0  0  1  0  0
   10.0110    5.8661   -4.8123 C   0  0  0  1  0  0
   11.0095    5.2225   -4.8979 C   0  0  0  1  0  0
   13.9249    3.0899   -6.1723 C   0  0  1  1  0  0
   11.9654    4.5674   -5.1686 C   0  0  0  1  0  0
   12.8701    3.9000   -5.5605 C   0  0  0  1  0  0
   13.5967    1.6204   -6.1072 C   0  0  0  1  0  0
   14.5288    0.6603   -5.9846 C   0  0  0  1  0  0
   13.2553    3.1817   -7.9657 H   0  0
    7.9072   10.0869   -0.2220 H   0  0
    6.3093    9.6688    0.3157 H   0  0
    6.6097    8.4086   -1.6859 H   0  0
    5.7879    9.8323   -2.2828 H   0  0
    6.7900   12.1250   -1.4456 H   0  0
    5.3620   11.5465   -0.6217 H   0  0
    8.7830    9.4512   -2.4318 H   0  0
    7.9314   10.8990   -2.7736 H   0  0
    7.8412   12.7607    0.7088 H   0  0
    6.5261   12.0922    1.6043 H   0  0
    6.8774   10.0387   -4.6729 H   0  0
    6.9751    8.4049   -4.1462 H   0  0
    5.1844   14.0713    0.8965 H   0  0
    6.3199   14.3800   -0.4222 H   0  0
    6.7711   14.6225    1.2775 H   0  0
    9.3706   10.0489   -5.1626 H   0  0
   10.0768    7.9986   -6.1655 H   0  0
    8.1246    6.2351   -5.7534 H   0  0
    8.1581    6.7279   -4.1445 H   0  0
   14.8817    3.2885   -5.6875 H   0  0
   12.5573    1.3427   -6.0746 H   0  0
   15.5781    0.8929   -5.9588 H   0  0
   14.2572   -0.3756   -5.9126 H   0  0
  1 14  1  0
  2  3  1  0
  2  4  1  0
  3  5  1  0
  4  6  1  0
  5  7  1  0
  6  8  1  0
  7  9  1  0
  9 10  2  0
 10 11  1  0
 11 12  1  0
 12 13  3  0
 13 15  1  0
 14 16  1  0
 14 17  1  0
 15 16  3  0
 17 18  2  0
  1 19  1  0
  2 20  1  0
  2 21  1  0
  3 22  1  0
  3 23  1  0
  4 24  1  0
  4 25  1  0
  5 26  1  0
  5 27  1  0
  6 28  1  0
  6 29  1  0
  7 30  1  0
  7 31  1  0
  8 32  1  0
  8 33  1  0
  8 34  1  0
  9 35  1  0
 10 36  1  0
 11 37  1  0
 11 38  1  0
 14 39  1  0
 17 40  1  0
 18 41  1  0
 18 42  1  0
M  END
> <Name>
5281149

> <Binding Energy>
-14.0007

> <Ligand Energy>
33.9882

> <Protein Energy>
-7801.1566

> <Complex Energy>
-7781.1691

> <Complex Entropy>
-31.4793

> <Protein Entropy>
-31.4717

> <Ligand Entropy>
-19.4133

> <Entropic Energy>
19.4057

> <AbsoluteEnergy>
16.6016

> <ConfNumber>
8

> <IonizationIndex>
1

> <MOL_NUMBER>
115

> <NumberOfIonizations>
1

> <NumberOfStereoisomers>
1

> <NumberOfTautomers>
1

> <PUBCHEM_ATOM_DEF_STEREO_COUNT>
1

> <PUBCHEM_ATOM_UDEF_STEREO_COUNT>
0

> <PUBCHEM_BOND_DEF_STEREO_COUNT>
1

> <PUBCHEM_BOND_UDEF_STEREO_COUNT>
0

> <PUBCHEM_CACTVS_TAUTO_COUNT>
1

> <PUBCHEM_COMPONENT_COUNT>
1

> <PUBCHEM_COMPOUND_CID>
5281149

> <PUBCHEM_CONFORMER_DIVERSEORDER>
1
254
209
5
437
60
25
493
309
529
655
100
489
590
585
438
425
56
17
236
455
233
611
34
659
130
153
340
449
20
204
609
556
199
372
483
217
329
110
193
302
102
46
445
413
553
117
439
73
551
343
36
129
328
122
619
144
321
490
569
640
185
10
202
378
212
428
370
3
412
113
530
491
183
480
156
465
366
105
19
634
450
177
15
584
665
22
247
604
180
154
461
76
13
601
16
111
543
557
579
165
80
24
382
214
515
494
99
597
171
78
574
18
107
267
23
639
662
629
39
12
561
2
33
61
57
59
8
4
27

> <PUBCHEM_CONFORMER_ID>
0050957D00000001

> <PUBCHEM_CONFORMER_RMSD>
1

> <PUBCHEM_COORDINATE_TYPE>
2
5
10

> <PUBCHEM_EFFECTIVE_ROTOR_COUNT>
8

> <PUBCHEM_FEATURE_SELFOVERLAP>
20.297

> <PUBCHEM_HEAVY_ATOM_COUNT>
18

> <PUBCHEM_ISOTOPIC_ATOM_COUNT>
0

> <PUBCHEM_MMFF94_ENERGY>
1.3895

> <PUBCHEM_MMFF94_PARTIAL_CHARGES>
16
1 -0.68
10 -0.29
11 0.34
12 -0.2
14 0.62
16 -0.2
17 -0.29
18 -0.3
34 0.15
35 0.15
39 0.15
40 0.4
41 0.15
42 0.15
7 0.14
9 -0.29

> <PUBCHEM_PHARMACOPHORE_FEATURES>
4
1 1 acceptor
1 1 donor
1 18 hydrophobe
1 8 hydrophobe

> <PUBCHEM_SHAPE_FINGERPRINT>
14251757 5 18047773760321663534
14916288 52 17545608211039580335
15006816 218 18266182729610520431
152267 14 17260747868408602694
16120349 306 18410289203081695233
16719943 64 18336823199516466642
167882 2 17976533919736673013
18336668 15 17321283203178673078
21673915 165 18412262843813010132
3084891 72 18338231690727493991
445580 42 17970346138170906410
57091435 65 18192436268395627635
602551 16 18340203089812928688

> <PUBCHEM_SHAPE_MULTIPOLES>
364.56
9.43
5.82
0.89
7.75
8.45
-0.1
-6.5
-1.56
0.52
-0.73
0.09
-0.24
-0.38

> <PUBCHEM_SHAPE_SELFOVERLAP>
685.609

> <PUBCHEM_SHAPE_VOLUME>
222.6

> <RelativeEnergy>
2.48339

> <StereoisomerIndex>
1

> <TautomerIndex>
1

> <POSE_NUMBER>
9

> <LibDockScore>
100.6169

> <HotSpots>
6.81,12.47,1.15,A,75,6
7.01,13.87,1.54,A,79,8
8.41,8.07,-4.86,A,38,11

> <-In-Situ Starting Energy>
-1015.87362

> <-In-Situ Final Energy>
-21.1283595

> <In-Situ Gradient>
0.000911212513

> <Favorable Total>
6

> <Unfavorable Total>
0

> <Charge Total>
0

> <Hydrophobic Total>
6

> <HydrogenBond Total>
0

> <Other Total>
0

> <Favorable A:LYS6>
0

> <Favorable A:ARG55>
0

> <Favorable A:LEU58>
0

> <Favorable A:LEU61>
0

> <Favorable A:ILE62>
0

> <Favorable A:GLY64>
0

> <Favorable A:SER65>
0

> <Favorable A:TRP66>
0

> <Favorable A:SER69>
0

> <Favorable A:VAL70>
0

> <Favorable A:PRO73>
0

> <Favorable A:ALA74>
0

> <Favorable A:PHE76>
0

> <Favorable A:ALA77>
0

> <Favorable A:THR78>
0

> <Favorable A:GLU79>
0

> <Favorable A:PHE82>
0

> <Favorable A:ARG83>
0

> <Favorable A:LEU85>
0

> <Favorable A:THR86>
0

> <Favorable A:TRP89>
0

> <Favorable A:THR90>
0

> <Favorable A:ASN93>
0

> <Favorable A:HIS94>
1

> <Favorable A:SER96>
0

> <Favorable A:VAL97>
0

> <Favorable A:TRP98>
2

> <Favorable A:PHE140>
1

> <Favorable A:LEU141>
0

> <Favorable A:ASN144>
0

> <Favorable A:ILE148>
0

> <Favorable A:ILE150>
0

> <Favorable A:HIS151>
0

> <Favorable A:ILE152>
0

> <Favorable A:ALA154>
0

> <Favorable A:SER155>
0

> <Favorable A:ILE156>
0

> <Favorable A:GLY158>
0

> <Favorable A:TYR159>
0

> <Favorable A:ARG160>
0

> <Favorable A:ARG161>
0

> <Favorable A:ASN162>
0

> <Favorable A:LYS163>
0

> <Favorable A:SER167>
0

> <Favorable A:ASP168>
0

> <Favorable A:SER169>
0

> <Favorable A:ASN171>
0

> <Favorable A:PHE172>
0

> <Favorable A:THR173>
0

> <Favorable A:ARG174>
0

> <Favorable A:PHE175>
0

> <Favorable A:SER176>
0

> <Favorable A:SER177>
0

> <Favorable A:LEU178>
0

> <Favorable A:ILE179>
0

> <Favorable A:VAL180>
0

> <Favorable A:LEU181>
0

> <Favorable A:SER183>
0

> <Favorable A:THR184>
0

> <Favorable A:PHE186>
1

> <Favorable A:ILE187>
0

> <Favorable A:PHE188>
0

> <Favorable A:ILE189>
0

> <Favorable A:PRO190>
0

> <Favorable A:PHE191>
0

> <Favorable A:TYR240>
0

> <Favorable A:PHE243>
0

> <Favorable A:SER244>
0

> <Favorable A:PHE247>
0

> <Favorable A:PHE248>
0

> <Favorable A:VAL251>
1

> <Favorable A:TRP252>
0

> <Favorable A:SER254>
0

> <Favorable A:GLU255>
0

> <Favorable A:ARG256>
0

> <Favorable A:LEU257>
0

> <Favorable A:GLU258>
0

> <Favorable A:GLU259>
0

> <Favorable A:LEU261>
0

> <Favorable A:ILE262>
0

> <Favorable A:ILE263>
0

> <Favorable A:SER265>
0

> <Favorable A:GLN266>
0

> <Favorable A:MET268>
0

> <Favorable A:GLY269>
0

> <Favorable A:TYR272>
0

> <Favorable A:PRO273>
0

> <Unfavorable A:ARG55>
0

> <Unfavorable A:PRO73>
0

> <Unfavorable A:PHE76>
0

> <Unfavorable A:GLU79>
0

> <Unfavorable A:ARG83>
0

> <Unfavorable A:THR86>
0

> <Unfavorable A:TRP89>
0

> <Unfavorable A:THR90>
0

> <Unfavorable A:ASN93>
0

> <Unfavorable A:TRP98>
0

> <Unfavorable A:ASN144>
0

> <Unfavorable A:SER155>
0

> <Unfavorable A:GLY158>
0

> <Unfavorable A:TYR159>
0

> <Unfavorable A:ASN162>
0

> <Unfavorable A:ASP168>
0

> <Unfavorable A:ASN171>
0

> <Unfavorable A:THR173>
0

> <Unfavorable A:ARG174>
0

> <Unfavorable A:SER183>
0

> <Unfavorable A:THR184>
0

> <Unfavorable A:PHE186>
0

> <Unfavorable A:SER244>
0

> <Unfavorable A:SER254>
0

> <Unfavorable A:GLU255>
0

> <Unfavorable A:SER265>
0

> <Unfavorable A:GLN266>
0

> <Unfavorable A:GLY269>
0

> <Charge A:ARG55>
0

> <Charge A:PHE76>
0

> <Charge A:GLU79>
0

> <Charge A:PHE82>
0

> <Charge A:ARG83>
0

> <Charge A:TRP89>
0

> <Charge A:HIS94>
0

> <Charge A:TRP98>
0

> <Charge A:TYR159>
0

> <Charge A:ARG161>
0

> <Charge A:LYS163>
0

> <Charge A:ASP168>
0

> <Charge A:PHE172>
0

> <Charge A:ARG174>
0

> <Charge A:PHE175>
0

> <Charge A:PHE188>
0

> <Charge A:PHE247>
0

> <Charge A:PHE248>
0

> <Hydrophobic A:LEU58>
0

> <Hydrophobic A:LEU61>
0

> <Hydrophobic A:ILE62>
0

> <Hydrophobic A:TRP66>
0

> <Hydrophobic A:VAL70>
0

> <Hydrophobic A:PRO73>
0

> <Hydrophobic A:ALA74>
0

> <Hydrophobic A:PHE76>
0

> <Hydrophobic A:ALA77>
0

> <Hydrophobic A:THR78>
0

> <Hydrophobic A:PHE82>
0

> <Hydrophobic A:ARG83>
0

> <Hydrophobic A:LEU85>
0

> <Hydrophobic A:TRP89>
0

> <Hydrophobic A:THR90>
0

> <Hydrophobic A:ASN93>
0

> <Hydrophobic A:HIS94>
1

> <Hydrophobic A:VAL97>
0

> <Hydrophobic A:TRP98>
2

> <Hydrophobic A:PHE140>
1

> <Hydrophobic A:LEU141>
0

> <Hydrophobic A:ILE148>
0

> <Hydrophobic A:ILE150>
0

> <Hydrophobic A:HIS151>
0

> <Hydrophobic A:ILE152>
0

> <Hydrophobic A:ALA154>
0

> <Hydrophobic A:SER155>
0

> <Hydrophobic A:ILE156>
0

> <Hydrophobic A:GLY158>
0

> <Hydrophobic A:TYR159>
0

> <Hydrophobic A:ARG160>
0

> <Hydrophobic A:ARG161>
0

> <Hydrophobic A:ASP168>
0

> <Hydrophobic A:ASN171>
0

> <Hydrophobic A:PHE172>
0

> <Hydrophobic A:ARG174>
0

> <Hydrophobic A:PHE175>
0

> <Hydrophobic A:LEU178>
0

> <Hydrophobic A:ILE179>
0

> <Hydrophobic A:VAL180>
0

> <Hydrophobic A:LEU181>
0

> <Hydrophobic A:PHE186>
1

> <Hydrophobic A:ILE187>
0

> <Hydrophobic A:PHE188>
0

> <Hydrophobic A:ILE189>
0

> <Hydrophobic A:PRO190>
0

> <Hydrophobic A:PHE191>
0

> <Hydrophobic A:TYR240>
0

> <Hydrophobic A:PHE243>
0

> <Hydrophobic A:PHE247>
0

> <Hydrophobic A:PHE248>
0

> <Hydrophobic A:VAL251>
1

> <Hydrophobic A:TRP252>
0

> <Hydrophobic A:SER254>
0

> <Hydrophobic A:LEU261>
0

> <Hydrophobic A:ILE262>
0

> <Hydrophobic A:ILE263>
0

> <Hydrophobic A:TYR272>
0

> <Hydrophobic A:PRO273>
0

> <HydrogenBond A:LYS6>
0

> <HydrogenBond A:ARG55>
0

> <HydrogenBond A:GLY64>
0

> <HydrogenBond A:SER65>
0

> <HydrogenBond A:TRP66>
0

> <HydrogenBond A:SER69>
0

> <HydrogenBond A:PRO73>
0

> <HydrogenBond A:ALA74>
0

> <HydrogenBond A:PHE76>
0

> <HydrogenBond A:ALA77>
0

> <HydrogenBond A:THR78>
0

> <HydrogenBond A:GLU79>
0

> <HydrogenBond A:PHE82>
0

> <HydrogenBond A:ARG83>
0

> <HydrogenBond A:LEU85>
0

> <HydrogenBond A:THR86>
0

> <HydrogenBond A:TRP89>
0

> <HydrogenBond A:THR90>
0

> <HydrogenBond A:ASN93>
0

> <HydrogenBond A:HIS94>
0

> <HydrogenBond A:SER96>
0

> <HydrogenBond A:TRP98>
0

> <HydrogenBond A:ASN144>
0

> <HydrogenBond A:HIS151>
0

> <HydrogenBond A:ILE152>
0

> <HydrogenBond A:ALA154>
0

> <HydrogenBond A:SER155>
0

> <HydrogenBond A:ILE156>
0

> <HydrogenBond A:GLY158>
0

> <HydrogenBond A:TYR159>
0

> <HydrogenBond A:ASN162>
0

> <HydrogenBond A:LYS163>
0

> <HydrogenBond A:SER167>
0

> <HydrogenBond A:ASP168>
0

> <HydrogenBond A:SER169>
0

> <HydrogenBond A:ASN171>
0

> <HydrogenBond A:PHE172>
0

> <HydrogenBond A:THR173>
0

> <HydrogenBond A:ARG174>
0

> <HydrogenBond A:PHE175>
0

> <HydrogenBond A:SER176>
0

> <HydrogenBond A:SER177>
0

> <HydrogenBond A:ILE179>
0

> <HydrogenBond A:VAL180>
0

> <HydrogenBond A:SER183>
0

> <HydrogenBond A:THR184>
0

> <HydrogenBond A:PHE186>
0

> <HydrogenBond A:ILE187>
0

> <HydrogenBond A:PRO190>
0

> <HydrogenBond A:TYR240>
0

> <HydrogenBond A:PHE243>
0

> <HydrogenBond A:SER244>
0

> <HydrogenBond A:PHE247>
0

> <HydrogenBond A:VAL251>
0

> <HydrogenBond A:SER254>
0

> <HydrogenBond A:GLU255>
0

> <HydrogenBond A:ARG256>
0

> <HydrogenBond A:LEU257>
0

> <HydrogenBond A:GLU258>
0

> <HydrogenBond A:GLU259>
0

> <HydrogenBond A:ILE262>
0

> <HydrogenBond A:SER265>
0

> <HydrogenBond A:GLN266>
0

> <HydrogenBond A:MET268>
0

> <HydrogenBond A:GLY269>
0

> <HydrogenBond A:PRO273>
0

> <Other A:SER69>
0

> <Other A:TRP89>
0

> <Other A:TYR159>
0

> <Other A:PHE172>
0

> <Other A:SER176>
0

> <Other A:SER265>
0

$$$$
5281157
  SciTegic09122300493D

 34 35  0  0  0  0            999 V2000
   14.3594    5.2707   -8.8414 O   0  0  0  1  0  0
   10.3845    4.4069   -4.7196 O   0  5  0  1  0  0
    9.7018    9.0936   -6.3015 O   0  0  0  1  0  0
    5.3925   10.0030    0.7356 O   0  0  0  1  0  0
   12.3691    4.8389   -3.9727 O   0  0  0  1  0  0
    9.9672    6.8637   -5.8883 N   0  0  0  1  0  0
   11.0590    6.5283   -6.6403 C   0  0  0  1  0  0
   11.8659    5.5035   -6.1453 C   0  0  0  1  0  0
   11.3722    7.1255   -7.8599 C   0  0  0  1  0  0
   12.9898    5.0966   -6.8572 C   0  0  0  1  0  0
   13.2862    5.6874   -8.0806 C   0  0  0  1  0  0
   12.4841    6.7034   -8.5720 C   0  0  0  1  0  0
    7.0928    9.3965   -2.9717 C   0  0  0  1  0  0
    9.3902    8.0572   -5.7222 C   0  0  0  1  0  0
    7.9911    9.2426   -4.1142 C   0  0  0  1  0  0
    8.3260    8.0804   -4.6975 C   0  0  0  1  0  0
    6.8177   10.6739   -2.5141 C   0  0  0  1  0  0
    6.6600    8.3114   -2.2257 C   0  0  0  1  0  0
   11.5254    4.8629   -4.8657 C   0  0  0  1  0  0
    6.3450   10.8714   -1.2329 C   0  0  0  1  0  0
    6.0335    8.5102   -1.0067 C   0  0  0  1  0  0
    5.9376    9.7868   -0.4930 C   0  0  0  1  0  0
   14.3553    4.3261   -8.9142 H   0  0
    4.4711    9.7794    0.7228 H   0  0
    9.6622    6.1676   -5.2370 H   0  0
   10.7676    7.9180   -8.2675 H   0  0
   13.6169    4.3202   -6.4427 H   0  0
   12.7369    7.1626   -9.5141 H   0  0
    8.4401   10.1386   -4.4747 H   0  0
    7.8735    7.1484   -4.4245 H   0  0
    6.9975   11.5187   -3.1396 H   0  0
    6.8907    7.2988   -2.5031 H   0  0
    6.2821   11.8588   -0.8052 H   0  0
    5.7105    7.6624   -0.4260 H   0  0
  1 11  1  0
  2 19  1  0
  3 14  2  0
  4 22  1  0
  5 19  2  0
  6  7  1  0
  6 14  1  0
  7  8  2  0
  7  9  1  0
  8 10  1  0
  8 19  1  0
  9 12  2  0
 10 11  2  0
 11 12  1  0
 13 15  1  0
 13 17  2  0
 13 18  1  0
 14 16  1  0
 15 16  2  0
 17 20  1  0
 18 21  2  0
 20 22  2  0
 21 22  1  0
  1 23  1  0
  4 24  1  0
  6 25  1  0
  9 26  1  0
 10 27  1  0
 12 28  1  0
 15 29  1  0
 16 30  1  0
 17 31  1  0
 18 32  1  0
 20 33  1  0
 21 34  1  0
M  CHG  1   2  -1
M  END
> <Name>
5281157

> <Binding Energy>
-45.4962

> <Ligand Energy>
-24.4887

> <Protein Energy>
-7801.1566

> <Complex Energy>
-7871.1415

> <Complex Entropy>
-31.4809

> <Protein Entropy>
-31.4717

> <Ligand Entropy>
-19.5485

> <Entropic Energy>
19.5392

> <AbsoluteEnergy>
53.4294

> <ConfNumber>
3

> <Ionization pH>
7.5

> <IonizationIndex>
1

> <MOL_NUMBER>
116

> <NumberOfIonizations>
1

> <NumberOfStereoisomers>
1

> <NumberOfTautomers>
3

> <PUBCHEM_ATOM_DEF_STEREO_COUNT>
0

> <PUBCHEM_ATOM_UDEF_STEREO_COUNT>
0

> <PUBCHEM_BOND_DEF_STEREO_COUNT>
1

> <PUBCHEM_BOND_UDEF_STEREO_COUNT>
0

> <PUBCHEM_CACTVS_TAUTO_COUNT>
16

> <PUBCHEM_COMPONENT_COUNT>
1

> <PUBCHEM_COMPOUND_CID>
5281157

> <PUBCHEM_CONFORMER_DIVERSEORDER>
1
8
4
7
6
5
3
2

> <PUBCHEM_CONFORMER_ID>
50958500000001

> <PUBCHEM_CONFORMER_RMSD>
0.8

> <PUBCHEM_COORDINATE_TYPE>
2
5
10

> <PUBCHEM_EFFECTIVE_ROTOR_COUNT>
5

> <PUBCHEM_FEATURE_SELFOVERLAP>
45.729

> <PUBCHEM_HEAVY_ATOM_COUNT>
22

> <PUBCHEM_ISOTOPIC_ATOM_COUNT>
0

> <PUBCHEM_MMFF94_ENERGY>
70.2779

> <PUBCHEM_MMFF94_PARTIAL_CHARGES>
35
1 -0.53
10 -0.15
11 0.08
12 -0.15
13 0.03
14 0.62
15 -0.18
16 -0.14
17 -0.15
18 -0.15
19 0.63
2 -0.65
20 -0.15
21 -0.15
22 0.08
23 0.15
24 0.15
25 0.37
26 0.15
27 0.15
28 0.15
29 0.15
3 -0.57
30 0.15
31 0.15
32 0.15
33 0.45
34 0.5
35 0.45
4 -0.53
5 -0.57
6 -0.55
7 0.12
8 0.09
9 -0.15

> <PUBCHEM_PHARMACOPHORE_FEATURES>
9
1 1 donor
1 2 acceptor
1 3 acceptor
1 4 donor
1 5 acceptor
1 6 donor
3 2 5 19 anion
6 13 17 18 20 21 22 rings
6 7 8 9 10 11 12 rings

> <PUBCHEM_SHAPE_FINGERPRINT>
10299344 5 18333734607008259284
10411042 1 18050849124995684895
10595046 47 18335142050601123204
10835480 77 18342169024998349392
11045977 3 17988919002936119072
11315181 36 17489870448928132377
11524674 6 17489867137466214615
11796584 16 18342460339934616774
12107183 9 17688588260844814144
12236239 1 18186240645206528412
12516196 113 18060698394767911416
12616971 3 17385447652258501844
12788726 201 17774157873324536769
12916748 109 8790887397655459728
13167823 11 18408602595690231250
13288520 33 18411699889960234349
13533116 47 17417249823474997982
13914758 101 14836132018227049571
14251764 18 18342740724026323589
14341114 176 18411703209574497216
14420673 8 18410858745884060522
14617045 38 18409450254277329418
15042514 8 18336549443223597931
15183329 4 18408882919151457122
15196674 1 18410011074306630546
15250474 111 18262503867063558218
15537594 2 17894627037400659162
15849732 13 17748828506134787261
17492 89 18048598411090735707
17844677 252 18411706508346900296
17857418 61 18410853257406063978
19141452 34 18408885152639965621
19489759 90 17203610363454077937
20681677 155 18334292076314418465
21236236 1 18412262869946784767
21267235 1 18335987549467894209
220451 1 18187086144205337048
23035841 295 18408603651993736344
23402539 116 18411697694778181212
23536379 177 18408041788783299896
23559900 14 18270673285290909689
3004659 81 18334294254437902088
335352 9 18411134741210352685
3545911 37 18411699872221130993
4073 2 18113904909540153618
4214541 1 18410855468771097248
4325135 7 18260832588335793668
5104073 3 18272090547352299728
559249 180 18410854365312642383
59755656 215 18342461387932959206
59755656 520 16950282914262948747
6327066 14 17826504471627000205
67856867 119 18262804098304758340
7226269 152 17917433086505025361
7495541 125 18059855108447140160
999808 66 17895206532100777003

> <PUBCHEM_SHAPE_MULTIPOLES>
418.42
18.02
2.36
0.64
15.95
1.35
0.01
1.2
0.23
-2.57
0.01
0.08
0.05
-0.41

> <PUBCHEM_SHAPE_SELFOVERLAP>
903.449

> <PUBCHEM_SHAPE_VOLUME>
228.2

> <RelativeEnergy>
1.27658

> <StereoisomerIndex>
1

> <TautomerIndex>
1

> <POSE_NUMBER>
1

> <LibDockScore>
111.999

> <HotSpots>
13.41,6.07,-3.65,P,65,2
5.01,10.27,-0.85,P,81,4
8.41,8.07,-4.86,A,38,15

> <-In-Situ Starting Energy>
-680.645696

> <-In-Situ Final Energy>
41.9094006

> <In-Situ Gradient>
0.0009551890086

> <Favorable Total>
8

> <Unfavorable Total>
0

> <Charge Total>
0

> <Hydrophobic Total>
5

> <HydrogenBond Total>
3

> <Other Total>
0

> <Favorable A:LYS6>
0

> <Favorable A:ARG55>
0

> <Favorable A:LEU58>
0

> <Favorable A:LEU61>
0

> <Favorable A:ILE62>
0

> <Favorable A:GLY64>
0

> <Favorable A:SER65>
0

> <Favorable A:TRP66>
0

> <Favorable A:SER69>
0

> <Favorable A:VAL70>
0

> <Favorable A:PRO73>
0

> <Favorable A:ALA74>
0

> <Favorable A:PHE76>
0

> <Favorable A:ALA77>
0

> <Favorable A:THR78>
0

> <Favorable A:GLU79>
0

> <Favorable A:PHE82>
0

> <Favorable A:ARG83>
0

> <Favorable A:LEU85>
0

> <Favorable A:THR86>
0

> <Favorable A:TRP89>
2

> <Favorable A:THR90>
1

> <Favorable A:ASN93>
1

> <Favorable A:HIS94>
0

> <Favorable A:SER96>
0

> <Favorable A:VAL97>
1

> <Favorable A:TRP98>
0

> <Favorable A:PHE140>
0

> <Favorable A:LEU141>
0

> <Favorable A:ASN144>
0

> <Favorable A:ILE148>
0

> <Favorable A:ILE150>
0

> <Favorable A:HIS151>
0

> <Favorable A:ILE152>
0

> <Favorable A:ALA154>
0

> <Favorable A:SER155>
0

> <Favorable A:ILE156>
0

> <Favorable A:GLY158>
0

> <Favorable A:TYR159>
0

> <Favorable A:ARG160>
0

> <Favorable A:ARG161>
0

> <Favorable A:ASN162>
0

> <Favorable A:LYS163>
0

> <Favorable A:SER167>
0

> <Favorable A:ASP168>
0

> <Favorable A:SER169>
0

> <Favorable A:ASN171>
0

> <Favorable A:PHE172>
0

> <Favorable A:THR173>
0

> <Favorable A:ARG174>
0

> <Favorable A:PHE175>
0

> <Favorable A:SER176>
0

> <Favorable A:SER177>
0

> <Favorable A:LEU178>
0

> <Favorable A:ILE179>
0

> <Favorable A:VAL180>
1

> <Favorable A:LEU181>
0

> <Favorable A:SER183>
1

> <Favorable A:THR184>
0

> <Favorable A:PHE186>
0

> <Favorable A:ILE187>
1

> <Favorable A:PHE188>
0

> <Favorable A:ILE189>
0

> <Favorable A:PRO190>
0

> <Favorable A:PHE191>
0

> <Favorable A:TYR240>
0

> <Favorable A:PHE243>
0

> <Favorable A:SER244>
0

> <Favorable A:PHE247>
0

> <Favorable A:PHE248>
0

> <Favorable A:VAL251>
0

> <Favorable A:TRP252>
0

> <Favorable A:SER254>
0

> <Favorable A:GLU255>
0

> <Favorable A:ARG256>
0

> <Favorable A:LEU257>
0

> <Favorable A:GLU258>
0

> <Favorable A:GLU259>
0

> <Favorable A:LEU261>
0

> <Favorable A:ILE262>
0

> <Favorable A:ILE263>
0

> <Favorable A:SER265>
0

> <Favorable A:GLN266>
0

> <Favorable A:MET268>
0

> <Favorable A:GLY269>
0

> <Favorable A:TYR272>
0

> <Favorable A:PRO273>
0

> <Unfavorable A:ARG55>
0

> <Unfavorable A:PRO73>
0

> <Unfavorable A:PHE76>
0

> <Unfavorable A:GLU79>
0

> <Unfavorable A:ARG83>
0

> <Unfavorable A:THR86>
0

> <Unfavorable A:TRP89>
0

> <Unfavorable A:THR90>
0

> <Unfavorable A:ASN93>
0

> <Unfavorable A:TRP98>
0

> <Unfavorable A:ASN144>
0

> <Unfavorable A:SER155>
0

> <Unfavorable A:GLY158>
0

> <Unfavorable A:TYR159>
0

> <Unfavorable A:ASN162>
0

> <Unfavorable A:ASP168>
0

> <Unfavorable A:ASN171>
0

> <Unfavorable A:THR173>
0

> <Unfavorable A:ARG174>
0

> <Unfavorable A:SER183>
0

> <Unfavorable A:THR184>
0

> <Unfavorable A:PHE186>
0

> <Unfavorable A:SER244>
0

> <Unfavorable A:SER254>
0

> <Unfavorable A:GLU255>
0

> <Unfavorable A:SER265>
0

> <Unfavorable A:GLN266>
0

> <Unfavorable A:GLY269>
0

> <Charge A:ARG55>
0

> <Charge A:PHE76>
0

> <Charge A:GLU79>
0

> <Charge A:PHE82>
0

> <Charge A:ARG83>
0

> <Charge A:TRP89>
0

> <Charge A:HIS94>
0

> <Charge A:TRP98>
0

> <Charge A:TYR159>
0

> <Charge A:ARG161>
0

> <Charge A:LYS163>
0

> <Charge A:ASP168>
0

> <Charge A:PHE172>
0

> <Charge A:ARG174>
0

> <Charge A:PHE175>
0

> <Charge A:PHE188>
0

> <Charge A:PHE247>
0

> <Charge A:PHE248>
0

> <Hydrophobic A:LEU58>
0

> <Hydrophobic A:LEU61>
0

> <Hydrophobic A:ILE62>
0

> <Hydrophobic A:TRP66>
0

> <Hydrophobic A:VAL70>
0

> <Hydrophobic A:PRO73>
0

> <Hydrophobic A:ALA74>
0

> <Hydrophobic A:PHE76>
0

> <Hydrophobic A:ALA77>
0

> <Hydrophobic A:THR78>
0

> <Hydrophobic A:PHE82>
0

> <Hydrophobic A:ARG83>
0

> <Hydrophobic A:LEU85>
0

> <Hydrophobic A:TRP89>
1

> <Hydrophobic A:THR90>
0

> <Hydrophobic A:ASN93>
1

> <Hydrophobic A:HIS94>
0

> <Hydrophobic A:VAL97>
1

> <Hydrophobic A:TRP98>
0

> <Hydrophobic A:PHE140>
0

> <Hydrophobic A:LEU141>
0

> <Hydrophobic A:ILE148>
0

> <Hydrophobic A:ILE150>
0

> <Hydrophobic A:HIS151>
0

> <Hydrophobic A:ILE152>
0

> <Hydrophobic A:ALA154>
0

> <Hydrophobic A:SER155>
0

> <Hydrophobic A:ILE156>
0

> <Hydrophobic A:GLY158>
0

> <Hydrophobic A:TYR159>
0

> <Hydrophobic A:ARG160>
0

> <Hydrophobic A:ARG161>
0

> <Hydrophobic A:ASP168>
0

> <Hydrophobic A:ASN171>
0

> <Hydrophobic A:PHE172>
0

> <Hydrophobic A:ARG174>
0

> <Hydrophobic A:PHE175>
0

> <Hydrophobic A:LEU178>
0

> <Hydrophobic A:ILE179>
0

> <Hydrophobic A:VAL180>
1

> <Hydrophobic A:LEU181>
0

> <Hydrophobic A:PHE186>
0

> <Hydrophobic A:ILE187>
1

> <Hydrophobic A:PHE188>
0

> <Hydrophobic A:ILE189>
0

> <Hydrophobic A:PRO190>
0

> <Hydrophobic A:PHE191>
0

> <Hydrophobic A:TYR240>
0

> <Hydrophobic A:PHE243>
0

> <Hydrophobic A:PHE247>
0

> <Hydrophobic A:PHE248>
0

> <Hydrophobic A:VAL251>
0

> <Hydrophobic A:TRP252>
0

> <Hydrophobic A:SER254>
0

> <Hydrophobic A:LEU261>
0

> <Hydrophobic A:ILE262>
0

> <Hydrophobic A:ILE263>
0

> <Hydrophobic A:TYR272>
0

> <Hydrophobic A:PRO273>
0

> <HydrogenBond A:LYS6>
0

> <HydrogenBond A:ARG55>
0

> <HydrogenBond A:GLY64>
0

> <HydrogenBond A:SER65>
0

> <HydrogenBond A:TRP66>
0

> <HydrogenBond A:SER69>
0

> <HydrogenBond A:PRO73>
0

> <HydrogenBond A:ALA74>
0

> <HydrogenBond A:PHE76>
0

> <HydrogenBond A:ALA77>
0

> <HydrogenBond A:THR78>
0

> <HydrogenBond A:GLU79>
0

> <HydrogenBond A:PHE82>
0

> <HydrogenBond A:ARG83>
0

> <HydrogenBond A:LEU85>
0

> <HydrogenBond A:THR86>
0

> <HydrogenBond A:TRP89>
1

> <HydrogenBond A:THR90>
1

> <HydrogenBond A:ASN93>
0

> <HydrogenBond A:HIS94>
0

> <HydrogenBond A:SER96>
0

> <HydrogenBond A:TRP98>
0

> <HydrogenBond A:ASN144>
0

> <HydrogenBond A:HIS151>
0

> <HydrogenBond A:ILE152>
0

> <HydrogenBond A:ALA154>
0

> <HydrogenBond A:SER155>
0

> <HydrogenBond A:ILE156>
0

> <HydrogenBond A:GLY158>
0

> <HydrogenBond A:TYR159>
0

> <HydrogenBond A:ASN162>
0

> <HydrogenBond A:LYS163>
0

> <HydrogenBond A:SER167>
0

> <HydrogenBond A:ASP168>
0

> <HydrogenBond A:SER169>
0

> <HydrogenBond A:ASN171>
0

> <HydrogenBond A:PHE172>
0

> <HydrogenBond A:THR173>
0

> <HydrogenBond A:ARG174>
0

> <HydrogenBond A:PHE175>
0

> <HydrogenBond A:SER176>
0

> <HydrogenBond A:SER177>
0

> <HydrogenBond A:ILE179>
0

> <HydrogenBond A:VAL180>
0

> <HydrogenBond A:SER183>
1

> <HydrogenBond A:THR184>
0

> <HydrogenBond A:PHE186>
0

> <HydrogenBond A:ILE187>
0

> <HydrogenBond A:PRO190>
0

> <HydrogenBond A:TYR240>
0

> <HydrogenBond A:PHE243>
0

> <HydrogenBond A:SER244>
0

> <HydrogenBond A:PHE247>
0

> <HydrogenBond A:VAL251>
0

> <HydrogenBond A:SER254>
0

> <HydrogenBond A:GLU255>
0

> <HydrogenBond A:ARG256>
0

> <HydrogenBond A:LEU257>
0

> <HydrogenBond A:GLU258>
0

> <HydrogenBond A:GLU259>
0

> <HydrogenBond A:ILE262>
0

> <HydrogenBond A:SER265>
0

> <HydrogenBond A:GLN266>
0

> <HydrogenBond A:MET268>
0

> <HydrogenBond A:GLY269>
0

> <HydrogenBond A:PRO273>
0

> <Other A:SER69>
0

> <Other A:TRP89>
0

> <Other A:TYR159>
0

> <Other A:PHE172>
0

> <Other A:SER176>
0

> <Other A:SER265>
0

$$$$
5281316
  SciTegic09122300493D

 86 89  0  0  0  0            999 V2000
   13.1855    4.4436  -10.9741 O   0  0  0  1  0  0
   18.0241   -0.5971  -11.1392 O   0  0  0  1  0  0
   13.8347    1.6834   -8.2076 O   0  0  0  1  0  0
   18.0237   -1.8261  -16.8145 O   0  0  0  1  0  0
   11.3945    2.2240   -8.2154 O   0  0  0  1  0  0
   15.6768    0.0247  -17.4838 O   0  0  0  1  0  0
    9.6069    2.7358  -13.7017 O   0  0  0  1  0  0
    8.4327    1.7293  -12.0651 O   0  0  0  1  0  0
   15.9497    2.7005  -11.9407 C   0  0  2  1  0  0
   15.5585    1.6870  -10.8273 C   0  0  1  1  0  0
   17.4483    2.5795  -12.3294 C   0  0  1  1  0  0
   17.8923    1.1540  -12.7596 C   0  0  2  1  0  0
   14.0984    2.1599  -10.5740 C   0  0  2  1  0  0
   15.5674    4.0283  -11.2666 C   0  0  0  1  0  0
   14.2826    3.7038  -10.4609 C   0  0  1  1  0  0
   15.8121    0.2582  -11.3576 C   0  0  0  1  0  0
   17.4371    0.7705  -14.1981 C   0  0  1  1  0  0
   17.3084    0.1476  -11.7313 C   0  0  0  1  0  0
   17.8806    3.6278  -13.3661 C   0  0  0  1  0  0
   15.0415    2.5746  -13.2031 C   0  0  0  1  0  0
   16.3863    1.8415   -9.5144 C   0  0  0  1  0  0
   13.2310    1.5049   -9.4677 C   0  0  1  1  0  0
   17.5511    1.8998  -15.2053 C   0  0  0  1  0  0
   19.4349    1.0776  -12.6662 C   0  0  0  1  0  0
   18.0635   -0.5086  -14.7620 C   0  0  0  1  0  0
   17.7561    3.1634  -14.7865 C   0  0  0  1  0  0
   17.3544    1.5314  -16.6720 C   0  0  0  1  0  0
   17.2272   -1.0156  -15.9644 C   0  0  1  1  0  0
   13.0063   -0.0058   -9.6715 C   0  0  0  1  0  0
   11.8334    2.1653   -9.3243 C   0  0  0  1  0  0
   16.6296    0.1670  -16.7801 C   0  0  0  1  0  0
   18.7115    1.2961  -17.3733 C   0  0  0  1  0  0
   16.6036    2.6134  -17.4738 C   0  0  0  1  0  0
   11.0721    2.8108  -10.4342 C   0  0  0  1  0  0
   11.1274    2.4885  -11.7486 C   0  0  0  1  0  0
   10.5823    3.3611  -12.8700 C   0  0  0  1  0  0
   11.7094    3.7381  -13.8348 C   0  0  0  1  0  0
    9.9609    4.6610  -12.3475 C   0  0  0  1  0  0
    8.5121    2.2363  -13.1701 C   0  0  0  1  0  0
    7.3038    2.3672  -14.0803 C   0  0  0  1  0  0
   13.3145    5.3741  -10.8048 H   0  0
   13.1020    1.7333   -7.5939 H   0  0
   18.3085   -2.6108  -16.3564 H   0  0
   17.9959    2.8177  -11.4214 H   0  0
   13.5563    1.9293  -11.4782 H   0  0
   16.3592    4.3630  -10.5956 H   0  0
   15.4317    4.8248  -11.9991 H   0  0
   14.4335    3.9493   -9.4023 H   0  0
   15.1940   -0.0172  -12.2078 H   0  0
   15.6302   -0.4854  -10.5868 H   0  0
   16.3787    0.5318  -14.1351 H   0  0
   17.3289    4.5569  -13.2281 H   0  0
   18.9278    3.8806  -13.2081 H   0  0
   14.1206    3.1302  -13.0748 H   0  0
   14.7362    1.5626  -13.4457 H   0  0
   15.4650    2.9962  -14.0994 H   0  0
   16.2466    2.7957   -9.0112 H   0  0
   17.4589    1.7262   -9.6611 H   0  0
   16.1014    1.0735   -8.7949 H   0  0
   19.7890    1.3880  -11.6820 H   0  0
   19.9129    1.7242  -13.4014 H   0  0
   19.8087    0.0665  -12.8310 H   0  0
   18.1020   -1.2830  -14.0012 H   0  0
   19.1006   -0.3246  -15.0363 H   0  0
   17.7041    3.9846  -15.4646 H   0  0
   16.3611   -1.5849  -15.6085 H   0  0
   12.2316   -0.3979   -9.0096 H   0  0
   13.9046   -0.5723   -9.4391 H   0  0
   12.7104   -0.2342  -10.6954 H   0  0
   19.3282    0.5311  -16.9086 H   0  0
   19.3038    2.2070  -17.3931 H   0  0
   18.5713    0.9943  -18.4129 H   0  0
   17.1154    3.5733  -17.4746 H   0  0
   15.5954    2.7688  -17.0875 H   0  0
   16.5227    2.3206  -18.5198 H   0  0
   10.4508    3.6184  -10.1029 H   0  0
   11.5959    1.5820  -12.0792 H   0  0
   11.3148    4.2900  -14.6885 H   0  0
   12.2062    2.8507  -14.2258 H   0  0
   12.4483    4.3774  -13.3559 H   0  0
    9.1183    4.4511  -11.6964 H   0  0
    9.5928    5.2563  -13.1789 H   0  0
   10.6782    5.2544  -11.7827 H   0  0
    7.5216    1.8970  -15.0381 H   0  0
    7.0774    3.4223  -14.2230 H   0  0
    6.4378    1.8913  -13.6257 H   0  0
  1 15  1  0
  2 18  2  0
  3 22  1  0
  4 28  1  0
  5 30  2  0
  6 31  2  0
  7 36  1  0
  7 39  1  0
  8 39  2  0
  9 10  1  0
  9 11  1  0
  9 14  1  0
  9 20  1  0
 10 13  1  0
 10 16  1  0
 10 21  1  0
 11 12  1  0
 11 19  1  0
 12 17  1  0
 12 18  1  0
 12 24  1  0
 13 15  1  0
 13 22  1  0
 14 15  1  0
 16 18  1  0
 17 23  1  0
 17 25  1  0
 19 26  1  0
 22 29  1  0
 22 30  1  0
 23 26  2  0
 23 27  1  0
 25 28  1  0
 27 31  1  0
 27 32  1  0
 27 33  1  0
 28 31  1  0
 30 34  1  0
 34 35  2  0
 35 36  1  0
 36 37  1  0
 36 38  1  0
 39 40  1  0
  1 41  1  0
  3 42  1  0
  4 43  1  0
 11 44  1  0
 13 45  1  0
 14 46  1  0
 14 47  1  0
 15 48  1  0
 16 49  1  0
 16 50  1  0
 17 51  1  0
 19 52  1  0
 19 53  1  0
 20 54  1  0
 20 55  1  0
 20 56  1  0
 21 57  1  0
 21 58  1  0
 21 59  1  0
 24 60  1  0
 24 61  1  0
 24 62  1  0
 25 63  1  0
 25 64  1  0
 26 65  1  0
 28 66  1  0
 29 67  1  0
 29 68  1  0
 29 69  1  0
 32 70  1  0
 32 71  1  0
 32 72  1  0
 33 73  1  0
 33 74  1  0
 33 75  1  0
 34 76  1  0
 35 77  1  0
 37 78  1  0
 37 79  1  0
 37 80  1  0
 38 81  1  0
 38 82  1  0
 38 83  1  0
 40 84  1  0
 40 85  1  0
 40 86  1  0
M  END
> <Name>
5281316

> <Binding Energy>
-51.7682

> <Ligand Energy>
101.3003

> <Protein Energy>
-7801.1566

> <Complex Energy>
-7751.6246

> <Complex Entropy>
-31.4933

> <Protein Entropy>
-31.4717

> <Ligand Entropy>
-20.9569

> <Entropic Energy>
20.9353

> <AbsoluteEnergy>
94.9576

> <ConfNumber>
7

> <IonizationIndex>
1

> <MOL_NUMBER>
119

> <NumberOfIonizations>
1

> <NumberOfStereoisomers>
1

> <NumberOfTautomers>
1

> <PUBCHEM_ATOM_DEF_STEREO_COUNT>
9

> <PUBCHEM_ATOM_UDEF_STEREO_COUNT>
0

> <PUBCHEM_BOND_DEF_STEREO_COUNT>
1

> <PUBCHEM_BOND_UDEF_STEREO_COUNT>
0

> <PUBCHEM_CACTVS_TAUTO_COUNT>
8

> <PUBCHEM_COMPONENT_COUNT>
1

> <PUBCHEM_COMPOUND_CID>
5281316

> <PUBCHEM_CONFORMER_DIVERSEORDER>
1
25
22
27
14
21
2
26
18
28
4
24
20
5
11
17
19
23
16
15
6
8
10
13
7
9
12
3

> <PUBCHEM_CONFORMER_ID>
50962400000001

> <PUBCHEM_CONFORMER_RMSD>
1

> <PUBCHEM_COORDINATE_TYPE>
2
5
10

> <PUBCHEM_EFFECTIVE_ROTOR_COUNT>
7.6

> <PUBCHEM_FEATURE_SELFOVERLAP>
81.324

> <PUBCHEM_HEAVY_ATOM_COUNT>
40

> <PUBCHEM_ISOTOPIC_ATOM_COUNT>
0

> <PUBCHEM_MMFF94_ENERGY>
162.8118

> <PUBCHEM_MMFF94_PARTIAL_CHARGES>
32
1 -0.68
12 0.06
15 0.28
16 0.06
17 0.14
18 0.45
19 0.14
2 -0.57
22 0.34
23 -0.28
26 -0.29
27 0.2
28 0.34
3 -0.68
30 0.49
31 0.45
34 -0.14
35 -0.29
36 0.42
39 0.66
4 -0.68
40 0.06
5 -0.57
6 -0.57
62 0.15
64 0.4
68 0.4
7 -0.43
75 0.15
76 0.4
77 0.15
8 -0.57

> <PUBCHEM_PHARMACOPHORE_FEATURES>
16
1 1 acceptor
1 1 donor
1 2 acceptor
1 3 acceptor
1 3 donor
1 4 acceptor
1 4 donor
1 5 acceptor
1 6 acceptor
1 8 acceptor
3 27 32 33 hydrophobe
3 36 37 38 hydrophobe
5 9 10 13 14 15 rings
6 11 12 17 19 23 26 rings
6 17 23 25 27 28 31 rings
6 9 10 11 12 16 18 rings

> <PUBCHEM_SHAPE_FINGERPRINT>
10319926 262 14418403348483477578
10533779 1 18341037528607201889
10554248 39 17346325834731493982
11135609 201 18341898502309017187
11578080 2 18335997401595805419
117089 54 9799394655492980093
12422481 6 16660360376994717878
12655364 131 15502362410486628161
12975358 362 18195266441945150353
13383661 66 12390353150576695229
13690498 29 16485831705173126311
13782708 43 9439402424092358980
13911987 19 17203325624381518911
14950920 106 13118581648877203269
15082195 135 17489580121960325967
15163728 17 18130792230852430847
15183329 4 14907909301377286986
15513586 35 17829619700682931165
15840311 113 18335983048094411189
16989378 47 11096164141338311820
19438510 23 18410291402115486776
19958102 18 11527941244842298580
20567600 247 9367345912396888748
20691028 202 18337957779547316521
21033648 144 18411413995282594349
21033648 29 17748829587791416427
21223535 225 18201998867890306780
21599406 157 15195569022051535332
22122407 14 18336827601889639016
22393880 68 14260483770862646055
23559900 14 17095806521527943470
23569914 152 11309549502614680697
23569914 2 17904720575640441812
25269216 80 13686299118791479277
2748736 6 18335698382083898236
2838139 119 18270400460736463725
3862424 121 12462704348167838653
392239 28 17386000715371170340
4112364 45 18336264522886635227
4144715 1 18336558182707117850
4258327 124 18342455920856387949
474113 269 12685098129170611233
484985 159 8646497306403710639
50677037 204 18410854334911196576
5104073 3 17676482843950028858
563151 74 18186518787410236050
57527293 21 15936693765723569542
57724786 102 18127418860548620735
6608658 132 16988853734773244609
999808 66 12973874910771627440

> <PUBCHEM_SHAPE_MULTIPOLES>
776.23
18.79
3.92
2.49
21.99
1.18
0.15
21.37
3.99
-0.23
0.25
-0.89
0.18
0.11

> <PUBCHEM_SHAPE_SELFOVERLAP>
1655.22

> <PUBCHEM_SHAPE_VOLUME>
428.2

> <RelativeEnergy>
4.86926

> <StereoisomerIndex>
1

> <TautomerIndex>
1

> <POSE_NUMBER>
1

> <LibDockScore>
67.8909

> <HotSpots>
16.81,4.47,-18.66,A,7,33
11.21,4.87,-14.65,A,18,37
7.21,2.27,-14.26,A,20,40

> <-In-Situ Starting Energy>
-2514.29543

> <-In-Situ Final Energy>
-71.9853214

> <In-Situ Gradient>
0.0009221783659

> <Favorable Total>
11

> <Unfavorable Total>
0

> <Charge Total>
0

> <Hydrophobic Total>
11

> <HydrogenBond Total>
0

> <Other Total>
0

> <Favorable A:LYS6>
0

> <Favorable A:ARG55>
0

> <Favorable A:LEU58>
0

> <Favorable A:LEU61>
0

> <Favorable A:ILE62>
0

> <Favorable A:GLY64>
0

> <Favorable A:SER65>
0

> <Favorable A:TRP66>
0

> <Favorable A:SER69>
0

> <Favorable A:VAL70>
0

> <Favorable A:PRO73>
0

> <Favorable A:ALA74>
0

> <Favorable A:PHE76>
2

> <Favorable A:ALA77>
0

> <Favorable A:THR78>
0

> <Favorable A:GLU79>
0

> <Favorable A:PHE82>
3

> <Favorable A:ARG83>
0

> <Favorable A:LEU85>
1

> <Favorable A:THR86>
0

> <Favorable A:TRP89>
2

> <Favorable A:THR90>
0

> <Favorable A:ASN93>
0

> <Favorable A:HIS94>
0

> <Favorable A:SER96>
0

> <Favorable A:VAL97>
0

> <Favorable A:TRP98>
0

> <Favorable A:PHE140>
0

> <Favorable A:LEU141>
0

> <Favorable A:ASN144>
0

> <Favorable A:ILE148>
0

> <Favorable A:ILE150>
0

> <Favorable A:HIS151>
0

> <Favorable A:ILE152>
0

> <Favorable A:ALA154>
0

> <Favorable A:SER155>
0

> <Favorable A:ILE156>
0

> <Favorable A:GLY158>
0

> <Favorable A:TYR159>
0

> <Favorable A:ARG160>
0

> <Favorable A:ARG161>
0

> <Favorable A:ASN162>
0

> <Favorable A:LYS163>
0

> <Favorable A:SER167>
0

> <Favorable A:ASP168>
0

> <Favorable A:SER169>
0

> <Favorable A:ASN171>
0

> <Favorable A:PHE172>
2

> <Favorable A:THR173>
0

> <Favorable A:ARG174>
0

> <Favorable A:PHE175>
0

> <Favorable A:SER176>
0

> <Favorable A:SER177>
0

> <Favorable A:LEU178>
0

> <Favorable A:ILE179>
0

> <Favorable A:VAL180>
1

> <Favorable A:LEU181>
0

> <Favorable A:SER183>
0

> <Favorable A:THR184>
0

> <Favorable A:PHE186>
0

> <Favorable A:ILE187>
0

> <Favorable A:PHE188>
0

> <Favorable A:ILE189>
0

> <Favorable A:PRO190>
0

> <Favorable A:PHE191>
0

> <Favorable A:TYR240>
0

> <Favorable A:PHE243>
0

> <Favorable A:SER244>
0

> <Favorable A:PHE247>
0

> <Favorable A:PHE248>
0

> <Favorable A:VAL251>
0

> <Favorable A:TRP252>
0

> <Favorable A:SER254>
0

> <Favorable A:GLU255>
0

> <Favorable A:ARG256>
0

> <Favorable A:LEU257>
0

> <Favorable A:GLU258>
0

> <Favorable A:GLU259>
0

> <Favorable A:LEU261>
0

> <Favorable A:ILE262>
0

> <Favorable A:ILE263>
0

> <Favorable A:SER265>
0

> <Favorable A:GLN266>
0

> <Favorable A:MET268>
0

> <Favorable A:GLY269>
0

> <Favorable A:TYR272>
0

> <Favorable A:PRO273>
0

> <Unfavorable A:ARG55>
0

> <Unfavorable A:PRO73>
0

> <Unfavorable A:PHE76>
0

> <Unfavorable A:GLU79>
0

> <Unfavorable A:ARG83>
0

> <Unfavorable A:THR86>
0

> <Unfavorable A:TRP89>
0

> <Unfavorable A:THR90>
0

> <Unfavorable A:ASN93>
0

> <Unfavorable A:TRP98>
0

> <Unfavorable A:ASN144>
0

> <Unfavorable A:SER155>
0

> <Unfavorable A:GLY158>
0

> <Unfavorable A:TYR159>
0

> <Unfavorable A:ASN162>
0

> <Unfavorable A:ASP168>
0

> <Unfavorable A:ASN171>
0

> <Unfavorable A:THR173>
0

> <Unfavorable A:ARG174>
0

> <Unfavorable A:SER183>
0

> <Unfavorable A:THR184>
0

> <Unfavorable A:PHE186>
0

> <Unfavorable A:SER244>
0

> <Unfavorable A:SER254>
0

> <Unfavorable A:GLU255>
0

> <Unfavorable A:SER265>
0

> <Unfavorable A:GLN266>
0

> <Unfavorable A:GLY269>
0

> <Charge A:ARG55>
0

> <Charge A:PHE76>
0

> <Charge A:GLU79>
0

> <Charge A:PHE82>
0

> <Charge A:ARG83>
0

> <Charge A:TRP89>
0

> <Charge A:HIS94>
0

> <Charge A:TRP98>
0

> <Charge A:TYR159>
0

> <Charge A:ARG161>
0

> <Charge A:LYS163>
0

> <Charge A:ASP168>
0

> <Charge A:PHE172>
0

> <Charge A:ARG174>
0

> <Charge A:PHE175>
0

> <Charge A:PHE188>
0

> <Charge A:PHE247>
0

> <Charge A:PHE248>
0

> <Hydrophobic A:LEU58>
0

> <Hydrophobic A:LEU61>
0

> <Hydrophobic A:ILE62>
0

> <Hydrophobic A:TRP66>
0

> <Hydrophobic A:VAL70>
0

> <Hydrophobic A:PRO73>
0

> <Hydrophobic A:ALA74>
0

> <Hydrophobic A:PHE76>
2

> <Hydrophobic A:ALA77>
0

> <Hydrophobic A:THR78>
0

> <Hydrophobic A:PHE82>
3

> <Hydrophobic A:ARG83>
0

> <Hydrophobic A:LEU85>
1

> <Hydrophobic A:TRP89>
2

> <Hydrophobic A:THR90>
0

> <Hydrophobic A:ASN93>
0

> <Hydrophobic A:HIS94>
0

> <Hydrophobic A:VAL97>
0

> <Hydrophobic A:TRP98>
0

> <Hydrophobic A:PHE140>
0

> <Hydrophobic A:LEU141>
0

> <Hydrophobic A:ILE148>
0

> <Hydrophobic A:ILE150>
0

> <Hydrophobic A:HIS151>
0

> <Hydrophobic A:ILE152>
0

> <Hydrophobic A:ALA154>
0

> <Hydrophobic A:SER155>
0

> <Hydrophobic A:ILE156>
0

> <Hydrophobic A:GLY158>
0

> <Hydrophobic A:TYR159>
0

> <Hydrophobic A:ARG160>
0

> <Hydrophobic A:ARG161>
0

> <Hydrophobic A:ASP168>
0

> <Hydrophobic A:ASN171>
0

> <Hydrophobic A:PHE172>
2

> <Hydrophobic A:ARG174>
0

> <Hydrophobic A:PHE175>
0

> <Hydrophobic A:LEU178>
0

> <Hydrophobic A:ILE179>
0

> <Hydrophobic A:VAL180>
1

> <Hydrophobic A:LEU181>
0

> <Hydrophobic A:PHE186>
0

> <Hydrophobic A:ILE187>
0

> <Hydrophobic A:PHE188>
0

> <Hydrophobic A:ILE189>
0

> <Hydrophobic A:PRO190>
0

> <Hydrophobic A:PHE191>
0

> <Hydrophobic A:TYR240>
0

> <Hydrophobic A:PHE243>
0

> <Hydrophobic A:PHE247>
0

> <Hydrophobic A:PHE248>
0

> <Hydrophobic A:VAL251>
0

> <Hydrophobic A:TRP252>
0

> <Hydrophobic A:SER254>
0

> <Hydrophobic A:LEU261>
0

> <Hydrophobic A:ILE262>
0

> <Hydrophobic A:ILE263>
0

> <Hydrophobic A:TYR272>
0

> <Hydrophobic A:PRO273>
0

> <HydrogenBond A:LYS6>
0

> <HydrogenBond A:ARG55>
0

> <HydrogenBond A:GLY64>
0

> <HydrogenBond A:SER65>
0

> <HydrogenBond A:TRP66>
0

> <HydrogenBond A:SER69>
0

> <HydrogenBond A:PRO73>
0

> <HydrogenBond A:ALA74>
0

> <HydrogenBond A:PHE76>
0

> <HydrogenBond A:ALA77>
0

> <HydrogenBond A:THR78>
0

> <HydrogenBond A:GLU79>
0

> <HydrogenBond A:PHE82>
0

> <HydrogenBond A:ARG83>
0

> <HydrogenBond A:LEU85>
0

> <HydrogenBond A:THR86>
0

> <HydrogenBond A:TRP89>
0

> <HydrogenBond A:THR90>
0

> <HydrogenBond A:ASN93>
0

> <HydrogenBond A:HIS94>
0

> <HydrogenBond A:SER96>
0

> <HydrogenBond A:TRP98>
0

> <HydrogenBond A:ASN144>
0

> <HydrogenBond A:HIS151>
0

> <HydrogenBond A:ILE152>
0

> <HydrogenBond A:ALA154>
0

> <HydrogenBond A:SER155>
0

> <HydrogenBond A:ILE156>
0

> <HydrogenBond A:GLY158>
0

> <HydrogenBond A:TYR159>
0

> <HydrogenBond A:ASN162>
0

> <HydrogenBond A:LYS163>
0

> <HydrogenBond A:SER167>
0

> <HydrogenBond A:ASP168>
0

> <HydrogenBond A:SER169>
0

> <HydrogenBond A:ASN171>
0

> <HydrogenBond A:PHE172>
0

> <HydrogenBond A:THR173>
0

> <HydrogenBond A:ARG174>
0

> <HydrogenBond A:PHE175>
0

> <HydrogenBond A:SER176>
0

> <HydrogenBond A:SER177>
0

> <HydrogenBond A:ILE179>
0

> <HydrogenBond A:VAL180>
0

> <HydrogenBond A:SER183>
0

> <HydrogenBond A:THR184>
0

> <HydrogenBond A:PHE186>
0

> <HydrogenBond A:ILE187>
0

> <HydrogenBond A:PRO190>
0

> <HydrogenBond A:TYR240>
0

> <HydrogenBond A:PHE243>
0

> <HydrogenBond A:SER244>
0

> <HydrogenBond A:PHE247>
0

> <HydrogenBond A:VAL251>
0

> <HydrogenBond A:SER254>
0

> <HydrogenBond A:GLU255>
0

> <HydrogenBond A:ARG256>
0

> <HydrogenBond A:LEU257>
0

> <HydrogenBond A:GLU258>
0

> <HydrogenBond A:GLU259>
0

> <HydrogenBond A:ILE262>
0

> <HydrogenBond A:SER265>
0

> <HydrogenBond A:GLN266>
0

> <HydrogenBond A:MET268>
0

> <HydrogenBond A:GLY269>
0

> <HydrogenBond A:PRO273>
0

> <Other A:SER69>
0

> <Other A:TRP89>
0

> <Other A:TYR159>
0

> <Other A:PHE172>
0

> <Other A:SER176>
0

> <Other A:SER265>
0

$$$$
5283266
  SciTegic09122300493D

 67 66  0  0  0  0            999 V2000
   14.9001    2.9305  -13.2317 O   0  0  0  1  0  0
   10.7983    3.8403  -13.5212 O   0  0  0  1  0  0
   11.8548    5.5381  -12.0478 O   0  0  0  1  0  0
   10.5143    6.2581  -10.4127 O   0  0  0  1  0  0
   17.1617    2.1387  -18.0378 C   0  0  0  1  0  0
   16.2122    1.3617  -17.1093 C   0  0  0  1  0  0
   16.8026    3.6176  -18.2834 C   0  0  0  1  0  0
   15.6432    2.1978  -15.9606 C   0  0  0  1  0  0
   17.7327    4.2414  -19.3353 C   0  0  0  1  0  0
   14.7673    1.3669  -15.0154 C   0  0  0  1  0  0
   17.8063    5.7762  -19.3033 C   0  0  0  1  0  0
   14.1864    2.2723  -13.9239 C   0  0  0  1  0  0
   12.6637    2.3672  -13.7751 C   0  0  0  1  0  0
   12.2087    3.8309  -13.6642 C   0  0  2  1  0  0
   16.8725    6.5359  -20.2026 C   0  0  0  1  0  0
   12.8326    4.5721  -12.4689 C   0  0  0  1  0  0
   20.4799   10.6037  -18.7809 C   0  0  0  1  0  0
   21.4903    9.6552  -19.4422 C   0  0  0  1  0  0
   19.0409   10.3128  -19.2282 C   0  0  0  1  0  0
   17.2366    7.4386  -21.1328 C   0  0  0  1  0  0
   22.9011    9.7677  -18.8513 C   0  0  0  1  0  0
   18.6030    8.0346  -21.3535 C   0  0  0  1  0  0
   18.8319   10.4910  -20.7101 C   0  0  0  1  0  0
   18.5550    9.5198  -21.6001 C   0  0  0  1  0  0
   23.8707    8.7651  -19.4891 C   0  0  0  1  0  0
   11.5282    5.6714  -10.7552 C   0  0  0  1  0  0
   12.4740    5.0947   -9.6942 C   0  0  0  1  0  0
   10.5384    4.6842  -13.1462 H   0  0
   18.1650    2.1032  -17.6115 H   0  0
   17.2262    1.6128  -18.9913 H   0  0
   16.7467    0.5018  -16.7038 H   0  0
   15.3880    0.9374  -17.6785 H   0  0
   15.7648    3.7332  -18.5873 H   0  0
   16.8977    4.1639  -17.3452 H   0  0
   16.4609    2.6575  -15.4026 H   0  0
   15.0460    3.0086  -16.3770 H   0  0
   18.7400    3.8641  -19.1548 H   0  0
   17.4707    3.8872  -20.3295 H   0  0
   15.3560    0.5839  -14.5379 H   0  0
   13.9598    0.8821  -15.5646 H   0  0
   17.6745    6.1355  -18.2830 H   0  0
   18.8191    6.0183  -19.6107 H   0  0
   12.3731    1.8130  -12.8831 H   0  0
   12.1812    1.8820  -14.6197 H   0  0
   12.4515    4.3592  -14.5910 H   0  0
   15.8371    6.2835  -20.1036 H   0  0
   13.7527    5.0887  -12.7424 H   0  0
   13.0665    3.8560  -11.6815 H   0  0
   20.5362   10.4962  -17.6966 H   0  0
   20.7407   11.6394  -19.0030 H   0  0
   21.1369    8.6298  -19.3408 H   0  0
   21.5314    9.8544  -20.5138 H   0  0
   18.3622   10.9832  -18.6999 H   0  0
   18.7564    9.3050  -18.9254 H   0  0
   16.4719    7.8692  -21.7451 H   0  0
   23.2753   10.7794  -18.9998 H   0  0
   22.8708    9.6071  -17.7731 H   0  0
   19.0714    7.5506  -22.2107 H   0  0
   19.2469    7.8351  -20.5009 H   0  0
   18.8391   11.5123  -21.0440 H   0  0
   18.3849    9.7909  -22.6260 H   0  0
   23.8764    8.8641  -20.5721 H   0  0
   23.5896    7.7353  -19.2801 H   0  0
   24.8885    8.9111  -19.1260 H   0  0
   13.5125    5.3083   -9.9465 H   0  0
   12.3232    4.0200   -9.5969 H   0  0
   12.2542    5.5588   -8.7330 H   0  0
  1 12  2  0
  2 14  1  0
  3 16  1  0
  3 26  1  0
  4 26  2  0
  5  6  1  0
  5  7  1  0
  6  8  1  0
  7  9  1  0
  8 10  1  0
  9 11  1  0
 10 12  1  0
 11 15  1  0
 12 13  1  0
 13 14  1  0
 14 16  1  0
 15 20  2  0
 17 18  1  0
 17 19  1  0
 18 21  1  0
 19 23  1  0
 20 22  1  0
 21 25  1  0
 22 24  1  0
 23 24  2  0
 26 27  1  0
  2 28  1  0
  5 29  1  0
  5 30  1  0
  6 31  1  0
  6 32  1  0
  7 33  1  0
  7 34  1  0
  8 35  1  0
  8 36  1  0
  9 37  1  0
  9 38  1  0
 10 39  1  0
 10 40  1  0
 11 41  1  0
 11 42  1  0
 13 43  1  0
 13 44  1  0
 14 45  1  0
 15 46  1  0
 16 47  1  0
 16 48  1  0
 17 49  1  0
 17 50  1  0
 18 51  1  0
 18 52  1  0
 19 53  1  0
 19 54  1  0
 20 55  1  0
 21 56  1  0
 21 57  1  0
 22 58  1  0
 22 59  1  0
 23 60  1  0
 24 61  1  0
 25 62  1  0
 25 63  1  0
 25 64  1  0
 27 65  1  0
 27 66  1  0
 27 67  1  0
M  END
> <Name>
5283266

> <Binding Energy>
-66.9858

> <Ligand Energy>
1.8885

> <Protein Energy>
-7801.1566

> <Complex Energy>
-7866.2539

> <Complex Entropy>
-31.4891

> <Protein Entropy>
-31.4717

> <Ligand Entropy>
-20.6773

> <Entropic Energy>
20.6599

> <AbsoluteEnergy>
40.1671

> <ConfNumber>
233

> <IonizationIndex>
1

> <MOL_NUMBER>
130

> <NumberOfIonizations>
1

> <NumberOfStereoisomers>
2

> <NumberOfTautomers>
1

> <PUBCHEM_ATOM_DEF_STEREO_COUNT>
0

> <PUBCHEM_ATOM_UDEF_STEREO_COUNT>
1

> <PUBCHEM_BONDANNOTATIONS>
14  44  3

> <PUBCHEM_BOND_DEF_STEREO_COUNT>
2

> <PUBCHEM_BOND_UDEF_STEREO_COUNT>
0

> <PUBCHEM_CACTVS_COMPLEXITY>
426

> <PUBCHEM_CACTVS_HBOND_ACCEPTOR>
4

> <PUBCHEM_CACTVS_HBOND_DONOR>
1

> <PUBCHEM_CACTVS_ROTATABLE_BOND>
19

> <PUBCHEM_CACTVS_SUBSKEYS>
AAADcfB4OAAAAAAAAAAAAAAAAAAAAAAAAAAAAAAAAAAAAAAAAAAAGgAACAAACBSggAICCAAABgCIAKDSCAAAAAAgAAAICAEAAAgBEBYAAQACQAAEoAALAAOKyKCAAAAAAAAAAAAAAAAAAAAAAAAAAAAAAA==

> <PUBCHEM_CACTVS_TAUTO_COUNT>
3

> <PUBCHEM_CACTVS_TPSA>
63.6

> <PUBCHEM_COMPONENT_COUNT>
1

> <PUBCHEM_COMPOUND_CANONICALIZED>
1

> <PUBCHEM_COMPOUND_CID>
5283266

> <PUBCHEM_COORDINATE_TYPE>
1
5
255

> <PUBCHEM_EXACT_MASS>
380.29265975

> <PUBCHEM_HEAVY_ATOM_COUNT>
27

> <PUBCHEM_ISOTOPIC_ATOM_COUNT>
0

> <PUBCHEM_IUPAC_CAS_NAME>
acetic acid [(12Z,15Z)-2-hydroxy-4-oxoheneicosa-12,15-dienyl] ester

> <PUBCHEM_IUPAC_INCHI>
InChI=1S/C23H40O4/c1-3-4-5-6-7-8-9-10-11-12-13-14-15-16-17-18-22(25)19-23(26)20-27-21(2)24/h7-8,10-11,23,26H,3-6,9,12-20H2,1-2H3/b8-7-,11-10-

> <PUBCHEM_IUPAC_INCHIKEY>
IBDVBNUJEGRVQN-NQLNTKRDSA-N

> <PUBCHEM_IUPAC_NAME>
[(12Z,15Z)-2-hydroxy-4-oxohenicosa-12,15-dienyl] acetate

> <PUBCHEM_IUPAC_NAME_MARKUP>
[(12<I>Z</I>,15<I>Z</I>)-2-hydroxy-4-oxohenicosa-12,15-dienyl] acetate

> <PUBCHEM_IUPAC_OPENEYE_NAME>
[(12Z,15Z)-2-hydroxy-4-oxo-henicosa-12,15-dienyl] acetate

> <PUBCHEM_IUPAC_SYSTEMATIC_NAME>
[(12Z,15Z)-2-oxidanyl-4-oxidanylidene-henicosa-12,15-dienyl] ethanoate

> <PUBCHEM_IUPAC_TRADITIONAL_NAME>
acetic acid [(12Z,15Z)-2-hydroxy-4-keto-heneicosa-12,15-dienyl] ester

> <PUBCHEM_MOLECULAR_FORMULA>
C23H40O4

> <PUBCHEM_MOLECULAR_WEIGHT>
380.6

> <PUBCHEM_MONOISOTOPIC_WEIGHT>
380.29265975

> <PUBCHEM_OPENEYE_CAN_SMILES>
CCCCCC=CCC=CCCCCCCCC(=O)CC(COC(=O)C)O

> <PUBCHEM_OPENEYE_ISO_SMILES>
CCCCC/C=C\C/C=C\CCCCCCCC(=O)CC(COC(=O)C)O

> <PUBCHEM_TOTAL_CHARGE>
0

> <PUBCHEM_XLOGP3_AA>
5.9

> <RelativeEnergy>
14.9084

> <StereoisomerIndex>
2

> <TautomerIndex>
1

> <POSE_NUMBER>
10

> <LibDockScore>
122.6891

> <HotSpots>
17.61,7.87,-18.45,A,8,20
23.21,9.67,-18.86,A,6,21
10.81,8.27,-8.46,A,35,26

> <-In-Situ Starting Energy>
-36577.2644

> <-In-Situ Final Energy>
25.6924522

> <In-Situ Gradient>
0.01381977966

> <Favorable Total>
4

> <Unfavorable Total>
0

> <Charge Total>
0

> <Hydrophobic Total>
2

> <HydrogenBond Total>
2

> <Other Total>
0

> <Favorable A:LYS6>
0

> <Favorable A:ARG55>
0

> <Favorable A:LEU58>
0

> <Favorable A:LEU61>
0

> <Favorable A:ILE62>
0

> <Favorable A:GLY64>
0

> <Favorable A:SER65>
0

> <Favorable A:TRP66>
0

> <Favorable A:SER69>
0

> <Favorable A:VAL70>
0

> <Favorable A:PRO73>
0

> <Favorable A:ALA74>
0

> <Favorable A:PHE76>
0

> <Favorable A:ALA77>
0

> <Favorable A:THR78>
0

> <Favorable A:GLU79>
0

> <Favorable A:PHE82>
0

> <Favorable A:ARG83>
0

> <Favorable A:LEU85>
0

> <Favorable A:THR86>
2

> <Favorable A:TRP89>
0

> <Favorable A:THR90>
0

> <Favorable A:ASN93>
0

> <Favorable A:HIS94>
0

> <Favorable A:SER96>
0

> <Favorable A:VAL97>
0

> <Favorable A:TRP98>
0

> <Favorable A:PHE140>
0

> <Favorable A:LEU141>
0

> <Favorable A:ASN144>
0

> <Favorable A:ILE148>
0

> <Favorable A:ILE150>
0

> <Favorable A:HIS151>
0

> <Favorable A:ILE152>
0

> <Favorable A:ALA154>
0

> <Favorable A:SER155>
0

> <Favorable A:ILE156>
0

> <Favorable A:GLY158>
0

> <Favorable A:TYR159>
1

> <Favorable A:ARG160>
0

> <Favorable A:ARG161>
0

> <Favorable A:ASN162>
0

> <Favorable A:LYS163>
0

> <Favorable A:SER167>
0

> <Favorable A:ASP168>
0

> <Favorable A:SER169>
0

> <Favorable A:ASN171>
0

> <Favorable A:PHE172>
1

> <Favorable A:THR173>
0

> <Favorable A:ARG174>
0

> <Favorable A:PHE175>
0

> <Favorable A:SER176>
0

> <Favorable A:SER177>
0

> <Favorable A:LEU178>
0

> <Favorable A:ILE179>
0

> <Favorable A:VAL180>
0

> <Favorable A:LEU181>
0

> <Favorable A:SER183>
0

> <Favorable A:THR184>
0

> <Favorable A:PHE186>
0

> <Favorable A:ILE187>
0

> <Favorable A:PHE188>
0

> <Favorable A:ILE189>
0

> <Favorable A:PRO190>
0

> <Favorable A:PHE191>
0

> <Favorable A:TYR240>
0

> <Favorable A:PHE243>
0

> <Favorable A:SER244>
0

> <Favorable A:PHE247>
0

> <Favorable A:PHE248>
0

> <Favorable A:VAL251>
0

> <Favorable A:TRP252>
0

> <Favorable A:SER254>
0

> <Favorable A:GLU255>
0

> <Favorable A:ARG256>
0

> <Favorable A:LEU257>
0

> <Favorable A:GLU258>
0

> <Favorable A:GLU259>
0

> <Favorable A:LEU261>
0

> <Favorable A:ILE262>
0

> <Favorable A:ILE263>
0

> <Favorable A:SER265>
0

> <Favorable A:GLN266>
0

> <Favorable A:MET268>
0

> <Favorable A:GLY269>
0

> <Favorable A:TYR272>
0

> <Favorable A:PRO273>
0

> <Unfavorable A:ARG55>
0

> <Unfavorable A:PRO73>
0

> <Unfavorable A:PHE76>
0

> <Unfavorable A:GLU79>
0

> <Unfavorable A:ARG83>
0

> <Unfavorable A:THR86>
0

> <Unfavorable A:TRP89>
0

> <Unfavorable A:THR90>
0

> <Unfavorable A:ASN93>
0

> <Unfavorable A:TRP98>
0

> <Unfavorable A:ASN144>
0

> <Unfavorable A:SER155>
0

> <Unfavorable A:GLY158>
0

> <Unfavorable A:TYR159>
0

> <Unfavorable A:ASN162>
0

> <Unfavorable A:ASP168>
0

> <Unfavorable A:ASN171>
0

> <Unfavorable A:THR173>
0

> <Unfavorable A:ARG174>
0

> <Unfavorable A:SER183>
0

> <Unfavorable A:THR184>
0

> <Unfavorable A:PHE186>
0

> <Unfavorable A:SER244>
0

> <Unfavorable A:SER254>
0

> <Unfavorable A:GLU255>
0

> <Unfavorable A:SER265>
0

> <Unfavorable A:GLN266>
0

> <Unfavorable A:GLY269>
0

> <Charge A:ARG55>
0

> <Charge A:PHE76>
0

> <Charge A:GLU79>
0

> <Charge A:PHE82>
0

> <Charge A:ARG83>
0

> <Charge A:TRP89>
0

> <Charge A:HIS94>
0

> <Charge A:TRP98>
0

> <Charge A:TYR159>
0

> <Charge A:ARG161>
0

> <Charge A:LYS163>
0

> <Charge A:ASP168>
0

> <Charge A:PHE172>
0

> <Charge A:ARG174>
0

> <Charge A:PHE175>
0

> <Charge A:PHE188>
0

> <Charge A:PHE247>
0

> <Charge A:PHE248>
0

> <Hydrophobic A:LEU58>
0

> <Hydrophobic A:LEU61>
0

> <Hydrophobic A:ILE62>
0

> <Hydrophobic A:TRP66>
0

> <Hydrophobic A:VAL70>
0

> <Hydrophobic A:PRO73>
0

> <Hydrophobic A:ALA74>
0

> <Hydrophobic A:PHE76>
0

> <Hydrophobic A:ALA77>
0

> <Hydrophobic A:THR78>
0

> <Hydrophobic A:PHE82>
0

> <Hydrophobic A:ARG83>
0

> <Hydrophobic A:LEU85>
0

> <Hydrophobic A:TRP89>
0

> <Hydrophobic A:THR90>
0

> <Hydrophobic A:ASN93>
0

> <Hydrophobic A:HIS94>
0

> <Hydrophobic A:VAL97>
0

> <Hydrophobic A:TRP98>
0

> <Hydrophobic A:PHE140>
0

> <Hydrophobic A:LEU141>
0

> <Hydrophobic A:ILE148>
0

> <Hydrophobic A:ILE150>
0

> <Hydrophobic A:HIS151>
0

> <Hydrophobic A:ILE152>
0

> <Hydrophobic A:ALA154>
0

> <Hydrophobic A:SER155>
0

> <Hydrophobic A:ILE156>
0

> <Hydrophobic A:GLY158>
0

> <Hydrophobic A:TYR159>
1

> <Hydrophobic A:ARG160>
0

> <Hydrophobic A:ARG161>
0

> <Hydrophobic A:ASP168>
0

> <Hydrophobic A:ASN171>
0

> <Hydrophobic A:PHE172>
1

> <Hydrophobic A:ARG174>
0

> <Hydrophobic A:PHE175>
0

> <Hydrophobic A:LEU178>
0

> <Hydrophobic A:ILE179>
0

> <Hydrophobic A:VAL180>
0

> <Hydrophobic A:LEU181>
0

> <Hydrophobic A:PHE186>
0

> <Hydrophobic A:ILE187>
0

> <Hydrophobic A:PHE188>
0

> <Hydrophobic A:ILE189>
0

> <Hydrophobic A:PRO190>
0

> <Hydrophobic A:PHE191>
0

> <Hydrophobic A:TYR240>
0

> <Hydrophobic A:PHE243>
0

> <Hydrophobic A:PHE247>
0

> <Hydrophobic A:PHE248>
0

> <Hydrophobic A:VAL251>
0

> <Hydrophobic A:TRP252>
0

> <Hydrophobic A:SER254>
0

> <Hydrophobic A:LEU261>
0

> <Hydrophobic A:ILE262>
0

> <Hydrophobic A:ILE263>
0

> <Hydrophobic A:TYR272>
0

> <Hydrophobic A:PRO273>
0

> <HydrogenBond A:LYS6>
0

> <HydrogenBond A:ARG55>
0

> <HydrogenBond A:GLY64>
0

> <HydrogenBond A:SER65>
0

> <HydrogenBond A:TRP66>
0

> <HydrogenBond A:SER69>
0

> <HydrogenBond A:PRO73>
0

> <HydrogenBond A:ALA74>
0

> <HydrogenBond A:PHE76>
0

> <HydrogenBond A:ALA77>
0

> <HydrogenBond A:THR78>
0

> <HydrogenBond A:GLU79>
0

> <HydrogenBond A:PHE82>
0

> <HydrogenBond A:ARG83>
0

> <HydrogenBond A:LEU85>
0

> <HydrogenBond A:THR86>
2

> <HydrogenBond A:TRP89>
0

> <HydrogenBond A:THR90>
0

> <HydrogenBond A:ASN93>
0

> <HydrogenBond A:HIS94>
0

> <HydrogenBond A:SER96>
0

> <HydrogenBond A:TRP98>
0

> <HydrogenBond A:ASN144>
0

> <HydrogenBond A:HIS151>
0

> <HydrogenBond A:ILE152>
0

> <HydrogenBond A:ALA154>
0

> <HydrogenBond A:SER155>
0

> <HydrogenBond A:ILE156>
0

> <HydrogenBond A:GLY158>
0

> <HydrogenBond A:TYR159>
0

> <HydrogenBond A:ASN162>
0

> <HydrogenBond A:LYS163>
0

> <HydrogenBond A:SER167>
0

> <HydrogenBond A:ASP168>
0

> <HydrogenBond A:SER169>
0

> <HydrogenBond A:ASN171>
0

> <HydrogenBond A:PHE172>
0

> <HydrogenBond A:THR173>
0

> <HydrogenBond A:ARG174>
0

> <HydrogenBond A:PHE175>
0

> <HydrogenBond A:SER176>
0

> <HydrogenBond A:SER177>
0

> <HydrogenBond A:ILE179>
0

> <HydrogenBond A:VAL180>
0

> <HydrogenBond A:SER183>
0

> <HydrogenBond A:THR184>
0

> <HydrogenBond A:PHE186>
0

> <HydrogenBond A:ILE187>
0

> <HydrogenBond A:PRO190>
0

> <HydrogenBond A:TYR240>
0

> <HydrogenBond A:PHE243>
0

> <HydrogenBond A:SER244>
0

> <HydrogenBond A:PHE247>
0

> <HydrogenBond A:VAL251>
0

> <HydrogenBond A:SER254>
0

> <HydrogenBond A:GLU255>
0

> <HydrogenBond A:ARG256>
0

> <HydrogenBond A:LEU257>
0

> <HydrogenBond A:GLU258>
0

> <HydrogenBond A:GLU259>
0

> <HydrogenBond A:ILE262>
0

> <HydrogenBond A:SER265>
0

> <HydrogenBond A:GLN266>
0

> <HydrogenBond A:MET268>
0

> <HydrogenBond A:GLY269>
0

> <HydrogenBond A:PRO273>
0

> <Other A:SER69>
0

> <Other A:TRP89>
0

> <Other A:TYR159>
0

> <Other A:PHE172>
0

> <Other A:SER176>
0

> <Other A:SER265>
0

$$$$
5283468
  SciTegic09122300493D

 65 64  0  0  0  0            999 V2000
   12.0491    3.2943  -11.9348 O   0  0  0  1  0  0
   11.8372    5.3837  -12.7613 O   0  0  0  1  0  0
    9.4336    4.5633  -13.3588 O   0  0  0  1  0  0
    7.2702    3.2498  -12.9884 O   0  0  0  1  0  0
    8.0143    0.0042   -4.7693 C   0  0  0  1  0  0
   13.0755    6.5194   -7.9980 C   0  0  0  1  0  0
   12.3428    5.6412   -6.9747 C   0  0  0  1  0  0
    9.2902   -0.8543   -5.1864 C   0  0  0  1  0  0
    8.1020    1.0887   -3.6836 C   0  0  0  1  0  0
   12.8615    6.1384   -9.4738 C   0  0  0  1  0  0
   12.9075    4.2182   -6.8651 C   0  0  0  1  0  0
   10.3958   -0.5027   -6.2304 C   0  0  0  1  0  0
    7.7688    0.6055   -2.2647 C   0  0  0  1  0  0
   13.7402    4.9736   -9.9597 C   0  0  0  1  0  0
   11.9672    3.1630   -7.4564 C   0  0  0  1  0  0
   11.5234    0.4659   -5.8609 C   0  0  0  1  0  0
    7.7227    1.7516   -1.2447 C   0  0  0  1  0  0
   12.6707    1.8509   -7.6734 C   0  0  0  1  0  0
   12.4414    0.6920   -7.0316 C   0  0  0  1  0  0
   13.8116    4.8547  -11.4887 C   0  0  0  1  0  0
    7.4545    1.2532    0.1792 C   0  0  0  1  0  0
   12.4558    4.5384  -12.1268 C   0  0  0  1  0  0
   11.0101    2.7455  -12.7522 C   0  0  0  1  0  0
    9.6338    3.4227  -12.5436 C   0  0  2  1  0  0
    8.4817    2.5203  -13.0036 C   0  0  0  1  0  0
   10.2074    5.1210  -13.2922 H   0  0
    7.4649    4.1201  -13.3455 H   0  0
    7.4357    0.3910   -5.5795 H   0  0
    7.2069   -0.6349   -4.4291 H   0  0
   12.7229    7.5424   -7.8666 H   0  0
   14.1399    6.5442   -7.7635 H   0  0
   11.2752    5.6259   -7.1919 H   0  0
   12.4361    6.1193   -6.0001 H   0  0
    8.8555   -1.7325   -5.6673 H   0  0
    9.7849   -1.2502   -4.3013 H   0  0
    7.3041    1.7918   -3.8677 H   0  0
    9.0118    1.6745   -3.7616 H   0  0
   11.8071    5.9361   -9.6667 H   0  0
   13.1166    7.0102  -10.0748 H   0  0
   13.8889    4.1678   -7.3362 H   0  0
   13.0824    3.9729   -5.8166 H   0  0
   10.9034   -1.4479   -6.4363 H   0  0
   10.0176   -0.2424   -7.2069 H   0  0
    6.7975    0.1079   -2.2730 H   0  0
    8.4761   -0.1469   -1.9438 H   0  0
   13.3925    4.0291   -9.5497 H   0  0
   14.7540    5.1137   -9.5828 H   0  0
   11.5696    3.5054   -8.4125 H   0  0
   11.1043    3.0419   -6.8073 H   0  0
   12.1399    0.0271   -5.0776 H   0  0
   11.1265    1.4065   -5.4856 H   0  0
    8.6634    2.2998   -1.2601 H   0  0
    6.9494    2.4652   -1.5327 H   0  0
   13.3829    1.8589   -8.4784 H   0  0
   12.9937   -0.1826   -7.3286 H   0  0
   14.5055    4.0628  -11.7696 H   0  0
   14.1912    5.7788  -11.9245 H   0  0
    8.2328    0.5630    0.5059 H   0  0
    6.4995    0.7312    0.2397 H   0  0
    7.4304    2.0840    0.8846 H   0  0
   10.9371    1.6894  -12.4909 H   0  0
   11.3160    2.7787  -13.8000 H   0  0
    9.4885    3.6883  -11.4918 H   0  0
    8.3716    1.6610  -12.3402 H   0  0
    8.6543    2.1324  -14.0122 H   0  0
  1 22  1  0
  1 23  1  0
  2 22  2  0
  3 24  1  0
  4 25  1  0
  5  8  1  0
  5  9  1  0
  6  7  1  0
  6 10  1  0
  7 11  1  0
  8 12  1  0
  9 13  1  0
 10 14  1  0
 11 15  1  0
 12 16  1  0
 13 17  1  0
 14 20  1  0
 15 18  1  0
 16 19  1  0
 17 21  1  0
 18 19  2  0
 20 22  1  0
 23 24  1  0
 24 25  1  0
  3 26  1  0
  4 27  1  0
  5 28  1  0
  5 29  1  0
  6 30  1  0
  6 31  1  0
  7 32  1  0
  7 33  1  0
  8 34  1  0
  8 35  1  0
  9 36  1  0
  9 37  1  0
 10 38  1  0
 10 39  1  0
 11 40  1  0
 11 41  1  0
 12 42  1  0
 12 43  1  0
 13 44  1  0
 13 45  1  0
 14 46  1  0
 14 47  1  0
 15 48  1  0
 15 49  1  0
 16 50  1  0
 16 51  1  0
 17 52  1  0
 17 53  1  0
 18 54  1  0
 19 55  1  0
 20 56  1  0
 20 57  1  0
 21 58  1  0
 21 59  1  0
 21 60  1  0
 23 61  1  0
 23 62  1  0
 24 63  1  0
 25 64  1  0
 25 65  1  0
M  END
> <Name>
5283468

> <Binding Energy>
-63.063

> <Ligand Energy>
23.89

> <Protein Energy>
-7801.1566

> <Complex Energy>
-7840.3297

> <Complex Entropy>
-31.4832

> <Protein Entropy>
-31.4717

> <Ligand Entropy>
-20.3072

> <Entropic Energy>
20.2957

> <AbsoluteEnergy>
27.6717

> <ConfNumber>
147

> <IonizationIndex>
1

> <MOL_NUMBER>
132

> <NumberOfIonizations>
1

> <NumberOfStereoisomers>
2

> <NumberOfTautomers>
1

> <PUBCHEM_ATOM_DEF_STEREO_COUNT>
0

> <PUBCHEM_ATOM_UDEF_STEREO_COUNT>
1

> <PUBCHEM_BONDANNOTATIONS>
24  61  3

> <PUBCHEM_BOND_DEF_STEREO_COUNT>
1

> <PUBCHEM_BOND_UDEF_STEREO_COUNT>
0

> <PUBCHEM_CACTVS_COMPLEXITY>
315

> <PUBCHEM_CACTVS_HBOND_ACCEPTOR>
4

> <PUBCHEM_CACTVS_HBOND_DONOR>
2

> <PUBCHEM_CACTVS_ROTATABLE_BOND>
19

> <PUBCHEM_CACTVS_SUBSKEYS>
AAADcfB4OAAAAAAAAAAAAAAAAAAAAAAAAAAAAAAAAAAAAAAAAAAAGgAACAAACBSggAICCAAABgCIACDSCAAAAAAgAAAICAEAAAgBEBIAAQACQAAFgAALAAOIyKCAAAAAAAAAAAAAAAAAAAAAAAAAAAAAAA==

> <PUBCHEM_CACTVS_TAUTO_COUNT>
1

> <PUBCHEM_CACTVS_TPSA>
66.8

> <PUBCHEM_COMPONENT_COUNT>
1

> <PUBCHEM_COMPOUND_CANONICALIZED>
1

> <PUBCHEM_COMPOUND_CID>
5283468

> <PUBCHEM_COORDINATE_TYPE>
1
5
255

> <PUBCHEM_EXACT_MASS>
356.29265975

> <PUBCHEM_HEAVY_ATOM_COUNT>
25

> <PUBCHEM_ISOTOPIC_ATOM_COUNT>
0

> <PUBCHEM_IUPAC_CAS_NAME>
(Z)-9-octadecenoic acid 2,3-dihydroxypropyl ester

> <PUBCHEM_IUPAC_INCHI>
InChI=1S/C21H40O4/c1-2-3-4-5-6-7-8-9-10-11-12-13-14-15-16-17-21(24)25-19-20(23)18-22/h9-10,20,22-23H,2-8,11-19H2,1H3/b10-9-

> <PUBCHEM_IUPAC_INCHIKEY>
RZRNAYUHWVFMIP-KTKRTIGZSA-N

> <PUBCHEM_IUPAC_NAME>
2,3-dihydroxypropyl (Z)-octadec-9-enoate

> <PUBCHEM_IUPAC_NAME_MARKUP>
2,3-dihydroxypropyl (<I>Z</I>)-octadec-9-enoate

> <PUBCHEM_IUPAC_OPENEYE_NAME>
2,3-dihydroxypropyl (Z)-octadec-9-enoate

> <PUBCHEM_IUPAC_SYSTEMATIC_NAME>
2,3-bis(oxidanyl)propyl (Z)-octadec-9-enoate

> <PUBCHEM_IUPAC_TRADITIONAL_NAME>
(Z)-octadec-9-enoic acid glyceryl ester

> <PUBCHEM_MOLECULAR_FORMULA>
C21H40O4

> <PUBCHEM_MOLECULAR_WEIGHT>
356.5

> <PUBCHEM_MONOISOTOPIC_WEIGHT>
356.29265975

> <PUBCHEM_OPENEYE_CAN_SMILES>
CCCCCCCCC=CCCCCCCCC(=O)OCC(CO)O

> <PUBCHEM_OPENEYE_ISO_SMILES>
CCCCCCCC/C=C\CCCCCCCC(=O)OCC(CO)O

> <PUBCHEM_TOTAL_CHARGE>
0

> <PUBCHEM_XLOGP3>
6.5

> <RelativeEnergy>
8.03818

> <StereoisomerIndex>
2

> <TautomerIndex>
1

> <POSE_NUMBER>
9

> <LibDockScore>
115.3526

> <HotSpots>
9.41,-1.33,-5.66,A,37,12
7.21,1.27,-2.85,A,46,13
9.21,3.67,-12.86,A,26,25

> <-In-Situ Starting Energy>
-66468.2787

> <-In-Situ Final Energy>
6.29103082

> <In-Situ Gradient>
0.0009119007503

> <Favorable Total>
4

> <Unfavorable Total>
1

> <Charge Total>
0

> <Hydrophobic Total>
1

> <HydrogenBond Total>
3

> <Other Total>
0

> <Favorable A:LYS6>
0

> <Favorable A:ARG55>
0

> <Favorable A:LEU58>
0

> <Favorable A:LEU61>
0

> <Favorable A:ILE62>
0

> <Favorable A:GLY64>
0

> <Favorable A:SER65>
0

> <Favorable A:TRP66>
0

> <Favorable A:SER69>
0

> <Favorable A:VAL70>
0

> <Favorable A:PRO73>
0

> <Favorable A:ALA74>
0

> <Favorable A:PHE76>
0

> <Favorable A:ALA77>
0

> <Favorable A:THR78>
0

> <Favorable A:GLU79>
0

> <Favorable A:PHE82>
0

> <Favorable A:ARG83>
0

> <Favorable A:LEU85>
1

> <Favorable A:THR86>
2

> <Favorable A:TRP89>
0

> <Favorable A:THR90>
0

> <Favorable A:ASN93>
0

> <Favorable A:HIS94>
0

> <Favorable A:SER96>
0

> <Favorable A:VAL97>
0

> <Favorable A:TRP98>
0

> <Favorable A:PHE140>
0

> <Favorable A:LEU141>
0

> <Favorable A:ASN144>
0

> <Favorable A:ILE148>
0

> <Favorable A:ILE150>
0

> <Favorable A:HIS151>
0

> <Favorable A:ILE152>
0

> <Favorable A:ALA154>
0

> <Favorable A:SER155>
0

> <Favorable A:ILE156>
0

> <Favorable A:GLY158>
0

> <Favorable A:TYR159>
0

> <Favorable A:ARG160>
0

> <Favorable A:ARG161>
0

> <Favorable A:ASN162>
0

> <Favorable A:LYS163>
0

> <Favorable A:SER167>
0

> <Favorable A:ASP168>
0

> <Favorable A:SER169>
0

> <Favorable A:ASN171>
0

> <Favorable A:PHE172>
0

> <Favorable A:THR173>
0

> <Favorable A:ARG174>
0

> <Favorable A:PHE175>
0

> <Favorable A:SER176>
0

> <Favorable A:SER177>
0

> <Favorable A:LEU178>
0

> <Favorable A:ILE179>
0

> <Favorable A:VAL180>
0

> <Favorable A:LEU181>
0

> <Favorable A:SER183>
0

> <Favorable A:THR184>
0

> <Favorable A:PHE186>
0

> <Favorable A:ILE187>
0

> <Favorable A:PHE188>
0

> <Favorable A:ILE189>
0

> <Favorable A:PRO190>
0

> <Favorable A:PHE191>
0

> <Favorable A:TYR240>
0

> <Favorable A:PHE243>
0

> <Favorable A:SER244>
0

> <Favorable A:PHE247>
1

> <Favorable A:PHE248>
0

> <Favorable A:VAL251>
0

> <Favorable A:TRP252>
0

> <Favorable A:SER254>
0

> <Favorable A:GLU255>
0

> <Favorable A:ARG256>
0

> <Favorable A:LEU257>
0

> <Favorable A:GLU258>
0

> <Favorable A:GLU259>
0

> <Favorable A:LEU261>
0

> <Favorable A:ILE262>
0

> <Favorable A:ILE263>
0

> <Favorable A:SER265>
0

> <Favorable A:GLN266>
0

> <Favorable A:MET268>
0

> <Favorable A:GLY269>
0

> <Favorable A:TYR272>
0

> <Favorable A:PRO273>
0

> <Unfavorable A:ARG55>
0

> <Unfavorable A:PRO73>
0

> <Unfavorable A:PHE76>
0

> <Unfavorable A:GLU79>
0

> <Unfavorable A:ARG83>
0

> <Unfavorable A:THR86>
1

> <Unfavorable A:TRP89>
0

> <Unfavorable A:THR90>
0

> <Unfavorable A:ASN93>
0

> <Unfavorable A:TRP98>
0

> <Unfavorable A:ASN144>
0

> <Unfavorable A:SER155>
0

> <Unfavorable A:GLY158>
0

> <Unfavorable A:TYR159>
0

> <Unfavorable A:ASN162>
0

> <Unfavorable A:ASP168>
0

> <Unfavorable A:ASN171>
0

> <Unfavorable A:THR173>
0

> <Unfavorable A:ARG174>
0

> <Unfavorable A:SER183>
0

> <Unfavorable A:THR184>
0

> <Unfavorable A:PHE186>
0

> <Unfavorable A:SER244>
0

> <Unfavorable A:SER254>
0

> <Unfavorable A:GLU255>
0

> <Unfavorable A:SER265>
0

> <Unfavorable A:GLN266>
0

> <Unfavorable A:GLY269>
0

> <Charge A:ARG55>
0

> <Charge A:PHE76>
0

> <Charge A:GLU79>
0

> <Charge A:PHE82>
0

> <Charge A:ARG83>
0

> <Charge A:TRP89>
0

> <Charge A:HIS94>
0

> <Charge A:TRP98>
0

> <Charge A:TYR159>
0

> <Charge A:ARG161>
0

> <Charge A:LYS163>
0

> <Charge A:ASP168>
0

> <Charge A:PHE172>
0

> <Charge A:ARG174>
0

> <Charge A:PHE175>
0

> <Charge A:PHE188>
0

> <Charge A:PHE247>
0

> <Charge A:PHE248>
0

> <Hydrophobic A:LEU58>
0

> <Hydrophobic A:LEU61>
0

> <Hydrophobic A:ILE62>
0

> <Hydrophobic A:TRP66>
0

> <Hydrophobic A:VAL70>
0

> <Hydrophobic A:PRO73>
0

> <Hydrophobic A:ALA74>
0

> <Hydrophobic A:PHE76>
0

> <Hydrophobic A:ALA77>
0

> <Hydrophobic A:THR78>
0

> <Hydrophobic A:PHE82>
0

> <Hydrophobic A:ARG83>
0

> <Hydrophobic A:LEU85>
0

> <Hydrophobic A:TRP89>
0

> <Hydrophobic A:THR90>
0

> <Hydrophobic A:ASN93>
0

> <Hydrophobic A:HIS94>
0

> <Hydrophobic A:VAL97>
0

> <Hydrophobic A:TRP98>
0

> <Hydrophobic A:PHE140>
0

> <Hydrophobic A:LEU141>
0

> <Hydrophobic A:ILE148>
0

> <Hydrophobic A:ILE150>
0

> <Hydrophobic A:HIS151>
0

> <Hydrophobic A:ILE152>
0

> <Hydrophobic A:ALA154>
0

> <Hydrophobic A:SER155>
0

> <Hydrophobic A:ILE156>
0

> <Hydrophobic A:GLY158>
0

> <Hydrophobic A:TYR159>
0

> <Hydrophobic A:ARG160>
0

> <Hydrophobic A:ARG161>
0

> <Hydrophobic A:ASP168>
0

> <Hydrophobic A:ASN171>
0

> <Hydrophobic A:PHE172>
0

> <Hydrophobic A:ARG174>
0

> <Hydrophobic A:PHE175>
0

> <Hydrophobic A:LEU178>
0

> <Hydrophobic A:ILE179>
0

> <Hydrophobic A:VAL180>
0

> <Hydrophobic A:LEU181>
0

> <Hydrophobic A:PHE186>
0

> <Hydrophobic A:ILE187>
0

> <Hydrophobic A:PHE188>
0

> <Hydrophobic A:ILE189>
0

> <Hydrophobic A:PRO190>
0

> <Hydrophobic A:PHE191>
0

> <Hydrophobic A:TYR240>
0

> <Hydrophobic A:PHE243>
0

> <Hydrophobic A:PHE247>
1

> <Hydrophobic A:PHE248>
0

> <Hydrophobic A:VAL251>
0

> <Hydrophobic A:TRP252>
0

> <Hydrophobic A:SER254>
0

> <Hydrophobic A:LEU261>
0

> <Hydrophobic A:ILE262>
0

> <Hydrophobic A:ILE263>
0

> <Hydrophobic A:TYR272>
0

> <Hydrophobic A:PRO273>
0

> <HydrogenBond A:LYS6>
0

> <HydrogenBond A:ARG55>
0

> <HydrogenBond A:GLY64>
0

> <HydrogenBond A:SER65>
0

> <HydrogenBond A:TRP66>
0

> <HydrogenBond A:SER69>
0

> <HydrogenBond A:PRO73>
0

> <HydrogenBond A:ALA74>
0

> <HydrogenBond A:PHE76>
0

> <HydrogenBond A:ALA77>
0

> <HydrogenBond A:THR78>
0

> <HydrogenBond A:GLU79>
0

> <HydrogenBond A:PHE82>
0

> <HydrogenBond A:ARG83>
0

> <HydrogenBond A:LEU85>
1

> <HydrogenBond A:THR86>
2

> <HydrogenBond A:TRP89>
0

> <HydrogenBond A:THR90>
0

> <HydrogenBond A:ASN93>
0

> <HydrogenBond A:HIS94>
0

> <HydrogenBond A:SER96>
0

> <HydrogenBond A:TRP98>
0

> <HydrogenBond A:ASN144>
0

> <HydrogenBond A:HIS151>
0

> <HydrogenBond A:ILE152>
0

> <HydrogenBond A:ALA154>
0

> <HydrogenBond A:SER155>
0

> <HydrogenBond A:ILE156>
0

> <HydrogenBond A:GLY158>
0

> <HydrogenBond A:TYR159>
0

> <HydrogenBond A:ASN162>
0

> <HydrogenBond A:LYS163>
0

> <HydrogenBond A:SER167>
0

> <HydrogenBond A:ASP168>
0

> <HydrogenBond A:SER169>
0

> <HydrogenBond A:ASN171>
0

> <HydrogenBond A:PHE172>
0

> <HydrogenBond A:THR173>
0

> <HydrogenBond A:ARG174>
0

> <HydrogenBond A:PHE175>
0

> <HydrogenBond A:SER176>
0

> <HydrogenBond A:SER177>
0

> <HydrogenBond A:ILE179>
0

> <HydrogenBond A:VAL180>
0

> <HydrogenBond A:SER183>
0

> <HydrogenBond A:THR184>
0

> <HydrogenBond A:PHE186>
0

> <HydrogenBond A:ILE187>
0

> <HydrogenBond A:PRO190>
0

> <HydrogenBond A:TYR240>
0

> <HydrogenBond A:PHE243>
0

> <HydrogenBond A:SER244>
0

> <HydrogenBond A:PHE247>
0

> <HydrogenBond A:VAL251>
0

> <HydrogenBond A:SER254>
0

> <HydrogenBond A:GLU255>
0

> <HydrogenBond A:ARG256>
0

> <HydrogenBond A:LEU257>
0

> <HydrogenBond A:GLU258>
0

> <HydrogenBond A:GLU259>
0

> <HydrogenBond A:ILE262>
0

> <HydrogenBond A:SER265>
0

> <HydrogenBond A:GLN266>
0

> <HydrogenBond A:MET268>
0

> <HydrogenBond A:GLY269>
0

> <HydrogenBond A:PRO273>
0

> <Other A:SER69>
0

> <Other A:TRP89>
0

> <Other A:TYR159>
0

> <Other A:PHE172>
0

> <Other A:SER176>
0

> <Other A:SER265>
0

$$$$
5283469
  SciTegic09122300493D

 63 62  0  0  0  0            999 V2000
    7.9186    1.8252    0.5378 O   0  0  0  1  0  0
    7.4523    3.9548    0.0826 O   0  0  0  1  0  0
    7.6464    1.6376    2.9056 O   0  0  0  1  0  0
    6.1175   -0.4873    4.2693 O   0  0  0  1  0  0
    7.1912    0.1602   -4.6234 C   0  0  0  1  0  0
    8.7177    0.0064   -4.5037 C   0  0  0  1  0  0
    6.4984    0.7563   -3.3828 C   0  0  0  1  0  0
    9.4084   -1.0358   -5.4368 C   0  0  0  1  0  0
    7.3707    1.5991   -2.4391 C   0  0  0  1  0  0
   10.5411   -0.6790   -6.4301 C   0  0  0  1  0  0
    6.5195    2.3305   -1.3870 C   0  0  0  1  0  0
   11.7491    0.0475   -5.9005 C   0  0  0  1  0  0
   12.6533    6.0225   -8.2590 C   0  0  0  1  0  0
   13.0654    5.7656   -6.8016 C   0  0  0  1  0  0
    7.3399    2.7704   -0.1826 C   0  0  0  1  0  0
   12.1519    4.7717   -8.9924 C   0  0  0  1  0  0
   11.8877    5.4369   -5.8743 C   0  0  0  1  0  0
   12.2555    1.2062   -6.3645 C   0  0  0  1  0  0
   11.8400    1.9330   -7.6191 C   0  0  0  1  0  0
   13.1608    3.6515   -8.9738 C   0  0  0  1  0  0
   13.0124    2.4312   -8.4235 C   0  0  0  1  0  0
    7.2755    0.5691    0.7677 C   0  0  0  1  0  0
   12.3341    5.0998   -4.4459 C   0  0  0  1  0  0
    7.3437    0.3941    2.2875 C   0  0  2  1  0  0
    6.0402   -0.0808    2.9158 C   0  0  0  1  0  0
    8.1790    2.1539    2.2921 H   0  0
    6.5376    0.1732    4.8294 H   0  0
    6.9143    0.7631   -5.4785 H   0  0
    6.7511   -0.8136   -4.8158 H   0  0
    8.8550   -0.3695   -3.4930 H   0  0
    9.2076    0.9717   -4.4786 H   0  0
    5.6668    1.3646   -3.7263 H   0  0
    6.0524   -0.0500   -2.8010 H   0  0
    8.6546   -1.6270   -5.9582 H   0  0
    9.8837   -1.7289   -4.7563 H   0  0
    8.0874    0.9441   -1.9438 H   0  0
    7.9545    2.3299   -2.9995 H   0  0
   10.9020   -1.6203   -6.8473 H   0  0
   10.1497   -0.1558   -7.2881 H   0  0
    6.1406    3.2608   -1.7836 H   0  0
    5.6439    1.7613   -1.0861 H   0  0
   12.2238   -0.4282   -5.0624 H   0  0
   11.8925    6.8034   -8.2936 H   0  0
   13.5140    6.4182   -8.7987 H   0  0
   13.8104    4.9715   -6.7532 H   0  0
   13.5616    6.6627   -6.4402 H   0  0
   11.9373    5.0314  -10.0293 H   0  0
   11.2020    4.4488   -8.5733 H   0  0
   11.3359    4.5890   -6.2691 H   0  0
   11.1902    6.2737   -5.8641 H   0  0
   13.1124    1.6283   -5.8705 H   0  0
   11.2524    1.2810   -8.2611 H   0  0
   11.1918    2.7571   -7.3434 H   0  0
   14.0785    3.8776   -9.4856 H   0  0
   13.8345    1.7406   -8.4801 H   0  0
    7.8188   -0.2167    0.2404 H   0  0
    6.2388    0.5599    0.4370 H   0  0
   12.9451    5.8878   -4.0088 H   0  0
   12.9287    4.1857   -4.4325 H   0  0
   11.4725    4.9516   -3.7953 H   0  0
    8.1209   -0.3430    2.4833 H   0  0
    5.7386   -0.9509    2.3473 H   0  0
    5.2626    0.6789    2.8104 H   0  0
  1 15  1  0
  1 22  1  0
  2 15  2  0
  3 24  1  0
  4 25  1  0
  5  6  1  0
  5  7  1  0
  6  8  1  0
  7  9  1  0
  8 10  1  0
  9 11  1  0
 10 12  1  0
 11 15  1  0
 12 18  2  0
 13 14  1  0
 13 16  1  0
 14 17  1  0
 16 20  1  0
 17 23  1  0
 18 19  1  0
 19 21  1  0
 20 21  2  0
 22 24  1  0
 24 25  1  0
  3 26  1  0
  4 27  1  0
  5 28  1  0
  5 29  1  0
  6 30  1  0
  6 31  1  0
  7 32  1  0
  7 33  1  0
  8 34  1  0
  8 35  1  0
  9 36  1  0
  9 37  1  0
 10 38  1  0
 10 39  1  0
 11 40  1  0
 11 41  1  0
 12 42  1  0
 13 43  1  0
 13 44  1  0
 14 45  1  0
 14 46  1  0
 16 47  1  0
 16 48  1  0
 17 49  1  0
 17 50  1  0
 18 51  1  0
 19 52  1  0
 19 53  1  0
 20 54  1  0
 21 55  1  0
 22 56  1  0
 22 57  1  0
 23 58  1  0
 23 59  1  0
 23 60  1  0
 24 61  1  0
 25 62  1  0
 25 63  1  0
M  END
> <Name>
5283469

> <Binding Energy>
-91.0783

> <Ligand Energy>
42.3807

> <Protein Energy>
-7801.1566

> <Complex Energy>
-7849.8542

> <Complex Entropy>
-31.482

> <Protein Entropy>
-31.4717

> <Ligand Entropy>
-20.3033

> <Entropic Energy>
20.293

> <AbsoluteEnergy>
34.4434

> <ConfNumber>
170

> <IonizationIndex>
1

> <MOL_NUMBER>
134

> <NumberOfIonizations>
1

> <NumberOfStereoisomers>
2

> <NumberOfTautomers>
1

> <PUBCHEM_ATOM_DEF_STEREO_COUNT>
0

> <PUBCHEM_ATOM_UDEF_STEREO_COUNT>
1

> <PUBCHEM_BONDANNOTATIONS>
24  59  3

> <PUBCHEM_BOND_DEF_STEREO_COUNT>
2

> <PUBCHEM_BOND_UDEF_STEREO_COUNT>
0

> <PUBCHEM_CACTVS_COMPLEXITY>
350

> <PUBCHEM_CACTVS_HBOND_ACCEPTOR>
4

> <PUBCHEM_CACTVS_HBOND_DONOR>
2

> <PUBCHEM_CACTVS_ROTATABLE_BOND>
18

> <PUBCHEM_CACTVS_SUBSKEYS>
AAADcfB4OAAAAAAAAAAAAAAAAAAAAAAAAAAAAAAAAAAAAAAAAAAAGgAACAAACBSggAICCAAABgCIACDSCAAAAAAgAAAICAEAAAgBEBIAAQACQAAFgAALAAOIyKCAAAAAAAAAAAAAAAAAAAAAAAAAAAAAAA==

> <PUBCHEM_CACTVS_TAUTO_COUNT>
1

> <PUBCHEM_CACTVS_TPSA>
66.8

> <PUBCHEM_COMPONENT_COUNT>
1

> <PUBCHEM_COMPOUND_CANONICALIZED>
1

> <PUBCHEM_COMPOUND_CID>
5283469

> <PUBCHEM_COORDINATE_TYPE>
1
5
255

> <PUBCHEM_EXACT_MASS>
354.27700969

> <PUBCHEM_HEAVY_ATOM_COUNT>
25

> <PUBCHEM_ISOTOPIC_ATOM_COUNT>
0

> <PUBCHEM_IUPAC_CAS_NAME>
(9Z,12Z)-octadeca-9,12-dienoic acid 2,3-dihydroxypropyl ester

> <PUBCHEM_IUPAC_INCHI>
InChI=1S/C21H38O4/c1-2-3-4-5-6-7-8-9-10-11-12-13-14-15-16-17-21(24)25-19-20(23)18-22/h6-7,9-10,20,22-23H,2-5,8,11-19H2,1H3/b7-6-,10-9-

> <PUBCHEM_IUPAC_INCHIKEY>
WECGLUPZRHILCT-HZJYTTRNSA-N

> <PUBCHEM_IUPAC_NAME>
2,3-dihydroxypropyl (9Z,12Z)-octadeca-9,12-dienoate

> <PUBCHEM_IUPAC_NAME_MARKUP>
2,3-dihydroxypropyl (9<I>Z</I>,12<I>Z</I>)-octadeca-9,12-dienoate

> <PUBCHEM_IUPAC_OPENEYE_NAME>
2,3-dihydroxypropyl (9Z,12Z)-octadeca-9,12-dienoate

> <PUBCHEM_IUPAC_SYSTEMATIC_NAME>
2,3-bis(oxidanyl)propyl (9Z,12Z)-octadeca-9,12-dienoate

> <PUBCHEM_IUPAC_TRADITIONAL_NAME>
(9Z,12Z)-octadeca-9,12-dienoic acid glyceryl ester

> <PUBCHEM_MOLECULAR_FORMULA>
C21H38O4

> <PUBCHEM_MOLECULAR_WEIGHT>
354.5

> <PUBCHEM_MONOISOTOPIC_WEIGHT>
354.27700969

> <PUBCHEM_OPENEYE_CAN_SMILES>
CCCCCC=CCC=CCCCCCCCC(=O)OCC(CO)O

> <PUBCHEM_OPENEYE_ISO_SMILES>
CCCCC/C=C\C/C=C\CCCCCCCC(=O)OCC(CO)O

> <PUBCHEM_TOTAL_CHARGE>
0

> <PUBCHEM_XLOGP3>
5.8

> <RelativeEnergy>
8.95676

> <StereoisomerIndex>
2

> <TautomerIndex>
1

> <POSE_NUMBER>
8

> <LibDockScore>
127.7654

> <HotSpots>
9.41,-1.33,-5.66,A,37,8
7.21,1.27,-2.85,A,46,9
7.61,1.27,1.95,A,80,24

> <-In-Situ Starting Energy>
-1255.03416

> <-In-Situ Final Energy>
1.47132097

> <In-Situ Gradient>
0.0009806364064

> <Favorable Total>
3

> <Unfavorable Total>
0

> <Charge Total>
0

> <Hydrophobic Total>
1

> <HydrogenBond Total>
2

> <Other Total>
0

> <Favorable A:LYS6>
0

> <Favorable A:ARG55>
0

> <Favorable A:LEU58>
0

> <Favorable A:LEU61>
0

> <Favorable A:ILE62>
0

> <Favorable A:GLY64>
0

> <Favorable A:SER65>
0

> <Favorable A:TRP66>
0

> <Favorable A:SER69>
0

> <Favorable A:VAL70>
0

> <Favorable A:PRO73>
0

> <Favorable A:ALA74>
0

> <Favorable A:PHE76>
0

> <Favorable A:ALA77>
0

> <Favorable A:THR78>
0

> <Favorable A:GLU79>
0

> <Favorable A:PHE82>
0

> <Favorable A:ARG83>
0

> <Favorable A:LEU85>
0

> <Favorable A:THR86>
0

> <Favorable A:TRP89>
0

> <Favorable A:THR90>
0

> <Favorable A:ASN93>
0

> <Favorable A:HIS94>
0

> <Favorable A:SER96>
0

> <Favorable A:VAL97>
0

> <Favorable A:TRP98>
0

> <Favorable A:PHE140>
0

> <Favorable A:LEU141>
0

> <Favorable A:ASN144>
0

> <Favorable A:ILE148>
0

> <Favorable A:ILE150>
0

> <Favorable A:HIS151>
0

> <Favorable A:ILE152>
0

> <Favorable A:ALA154>
0

> <Favorable A:SER155>
0

> <Favorable A:ILE156>
0

> <Favorable A:GLY158>
0

> <Favorable A:TYR159>
0

> <Favorable A:ARG160>
0

> <Favorable A:ARG161>
0

> <Favorable A:ASN162>
0

> <Favorable A:LYS163>
0

> <Favorable A:SER167>
0

> <Favorable A:ASP168>
0

> <Favorable A:SER169>
0

> <Favorable A:ASN171>
0

> <Favorable A:PHE172>
0

> <Favorable A:THR173>
0

> <Favorable A:ARG174>
0

> <Favorable A:PHE175>
0

> <Favorable A:SER176>
0

> <Favorable A:SER177>
0

> <Favorable A:LEU178>
0

> <Favorable A:ILE179>
0

> <Favorable A:VAL180>
0

> <Favorable A:LEU181>
0

> <Favorable A:SER183>
0

> <Favorable A:THR184>
0

> <Favorable A:PHE186>
0

> <Favorable A:ILE187>
0

> <Favorable A:PHE188>
0

> <Favorable A:ILE189>
0

> <Favorable A:PRO190>
0

> <Favorable A:PHE191>
0

> <Favorable A:TYR240>
1

> <Favorable A:PHE243>
0

> <Favorable A:SER244>
1

> <Favorable A:PHE247>
1

> <Favorable A:PHE248>
0

> <Favorable A:VAL251>
0

> <Favorable A:TRP252>
0

> <Favorable A:SER254>
0

> <Favorable A:GLU255>
0

> <Favorable A:ARG256>
0

> <Favorable A:LEU257>
0

> <Favorable A:GLU258>
0

> <Favorable A:GLU259>
0

> <Favorable A:LEU261>
0

> <Favorable A:ILE262>
0

> <Favorable A:ILE263>
0

> <Favorable A:SER265>
0

> <Favorable A:GLN266>
0

> <Favorable A:MET268>
0

> <Favorable A:GLY269>
0

> <Favorable A:TYR272>
0

> <Favorable A:PRO273>
0

> <Unfavorable A:ARG55>
0

> <Unfavorable A:PRO73>
0

> <Unfavorable A:PHE76>
0

> <Unfavorable A:GLU79>
0

> <Unfavorable A:ARG83>
0

> <Unfavorable A:THR86>
0

> <Unfavorable A:TRP89>
0

> <Unfavorable A:THR90>
0

> <Unfavorable A:ASN93>
0

> <Unfavorable A:TRP98>
0

> <Unfavorable A:ASN144>
0

> <Unfavorable A:SER155>
0

> <Unfavorable A:GLY158>
0

> <Unfavorable A:TYR159>
0

> <Unfavorable A:ASN162>
0

> <Unfavorable A:ASP168>
0

> <Unfavorable A:ASN171>
0

> <Unfavorable A:THR173>
0

> <Unfavorable A:ARG174>
0

> <Unfavorable A:SER183>
0

> <Unfavorable A:THR184>
0

> <Unfavorable A:PHE186>
0

> <Unfavorable A:SER244>
0

> <Unfavorable A:SER254>
0

> <Unfavorable A:GLU255>
0

> <Unfavorable A:SER265>
0

> <Unfavorable A:GLN266>
0

> <Unfavorable A:GLY269>
0

> <Charge A:ARG55>
0

> <Charge A:PHE76>
0

> <Charge A:GLU79>
0

> <Charge A:PHE82>
0

> <Charge A:ARG83>
0

> <Charge A:TRP89>
0

> <Charge A:HIS94>
0

> <Charge A:TRP98>
0

> <Charge A:TYR159>
0

> <Charge A:ARG161>
0

> <Charge A:LYS163>
0

> <Charge A:ASP168>
0

> <Charge A:PHE172>
0

> <Charge A:ARG174>
0

> <Charge A:PHE175>
0

> <Charge A:PHE188>
0

> <Charge A:PHE247>
0

> <Charge A:PHE248>
0

> <Hydrophobic A:LEU58>
0

> <Hydrophobic A:LEU61>
0

> <Hydrophobic A:ILE62>
0

> <Hydrophobic A:TRP66>
0

> <Hydrophobic A:VAL70>
0

> <Hydrophobic A:PRO73>
0

> <Hydrophobic A:ALA74>
0

> <Hydrophobic A:PHE76>
0

> <Hydrophobic A:ALA77>
0

> <Hydrophobic A:THR78>
0

> <Hydrophobic A:PHE82>
0

> <Hydrophobic A:ARG83>
0

> <Hydrophobic A:LEU85>
0

> <Hydrophobic A:TRP89>
0

> <Hydrophobic A:THR90>
0

> <Hydrophobic A:ASN93>
0

> <Hydrophobic A:HIS94>
0

> <Hydrophobic A:VAL97>
0

> <Hydrophobic A:TRP98>
0

> <Hydrophobic A:PHE140>
0

> <Hydrophobic A:LEU141>
0

> <Hydrophobic A:ILE148>
0

> <Hydrophobic A:ILE150>
0

> <Hydrophobic A:HIS151>
0

> <Hydrophobic A:ILE152>
0

> <Hydrophobic A:ALA154>
0

> <Hydrophobic A:SER155>
0

> <Hydrophobic A:ILE156>
0

> <Hydrophobic A:GLY158>
0

> <Hydrophobic A:TYR159>
0

> <Hydrophobic A:ARG160>
0

> <Hydrophobic A:ARG161>
0

> <Hydrophobic A:ASP168>
0

> <Hydrophobic A:ASN171>
0

> <Hydrophobic A:PHE172>
0

> <Hydrophobic A:ARG174>
0

> <Hydrophobic A:PHE175>
0

> <Hydrophobic A:LEU178>
0

> <Hydrophobic A:ILE179>
0

> <Hydrophobic A:VAL180>
0

> <Hydrophobic A:LEU181>
0

> <Hydrophobic A:PHE186>
0

> <Hydrophobic A:ILE187>
0

> <Hydrophobic A:PHE188>
0

> <Hydrophobic A:ILE189>
0

> <Hydrophobic A:PRO190>
0

> <Hydrophobic A:PHE191>
0

> <Hydrophobic A:TYR240>
0

> <Hydrophobic A:PHE243>
0

> <Hydrophobic A:PHE247>
1

> <Hydrophobic A:PHE248>
0

> <Hydrophobic A:VAL251>
0

> <Hydrophobic A:TRP252>
0

> <Hydrophobic A:SER254>
0

> <Hydrophobic A:LEU261>
0

> <Hydrophobic A:ILE262>
0

> <Hydrophobic A:ILE263>
0

> <Hydrophobic A:TYR272>
0

> <Hydrophobic A:PRO273>
0

> <HydrogenBond A:LYS6>
0

> <HydrogenBond A:ARG55>
0

> <HydrogenBond A:GLY64>
0

> <HydrogenBond A:SER65>
0

> <HydrogenBond A:TRP66>
0

> <HydrogenBond A:SER69>
0

> <HydrogenBond A:PRO73>
0

> <HydrogenBond A:ALA74>
0

> <HydrogenBond A:PHE76>
0

> <HydrogenBond A:ALA77>
0

> <HydrogenBond A:THR78>
0

> <HydrogenBond A:GLU79>
0

> <HydrogenBond A:PHE82>
0

> <HydrogenBond A:ARG83>
0

> <HydrogenBond A:LEU85>
0

> <HydrogenBond A:THR86>
0

> <HydrogenBond A:TRP89>
0

> <HydrogenBond A:THR90>
0

> <HydrogenBond A:ASN93>
0

> <HydrogenBond A:HIS94>
0

> <HydrogenBond A:SER96>
0

> <HydrogenBond A:TRP98>
0

> <HydrogenBond A:ASN144>
0

> <HydrogenBond A:HIS151>
0

> <HydrogenBond A:ILE152>
0

> <HydrogenBond A:ALA154>
0

> <HydrogenBond A:SER155>
0

> <HydrogenBond A:ILE156>
0

> <HydrogenBond A:GLY158>
0

> <HydrogenBond A:TYR159>
0

> <HydrogenBond A:ASN162>
0

> <HydrogenBond A:LYS163>
0

> <HydrogenBond A:SER167>
0

> <HydrogenBond A:ASP168>
0

> <HydrogenBond A:SER169>
0

> <HydrogenBond A:ASN171>
0

> <HydrogenBond A:PHE172>
0

> <HydrogenBond A:THR173>
0

> <HydrogenBond A:ARG174>
0

> <HydrogenBond A:PHE175>
0

> <HydrogenBond A:SER176>
0

> <HydrogenBond A:SER177>
0

> <HydrogenBond A:ILE179>
0

> <HydrogenBond A:VAL180>
0

> <HydrogenBond A:SER183>
0

> <HydrogenBond A:THR184>
0

> <HydrogenBond A:PHE186>
0

> <HydrogenBond A:ILE187>
0

> <HydrogenBond A:PRO190>
0

> <HydrogenBond A:TYR240>
1

> <HydrogenBond A:PHE243>
0

> <HydrogenBond A:SER244>
1

> <HydrogenBond A:PHE247>
0

> <HydrogenBond A:VAL251>
0

> <HydrogenBond A:SER254>
0

> <HydrogenBond A:GLU255>
0

> <HydrogenBond A:ARG256>
0

> <HydrogenBond A:LEU257>
0

> <HydrogenBond A:GLU258>
0

> <HydrogenBond A:GLU259>
0

> <HydrogenBond A:ILE262>
0

> <HydrogenBond A:SER265>
0

> <HydrogenBond A:GLN266>
0

> <HydrogenBond A:MET268>
0

> <HydrogenBond A:GLY269>
0

> <HydrogenBond A:PRO273>
0

> <Other A:SER69>
0

> <Other A:TRP89>
0

> <Other A:TYR159>
0

> <Other A:PHE172>
0

> <Other A:SER176>
0

> <Other A:SER265>
0

$$$$
5317238
  SciTegic09122300493D

 27 27  0  0  0  0            999 V2000
   10.2190    7.8302   -6.6747 O   0  0  0  1  0  0
    5.7661    9.0641    0.3099 O   0  0  0  1  0  0
    6.1117   11.7296   -0.4406 O   0  0  0  1  0  0
    9.6194    6.1295   -5.0658 O   0  0  0  1  0  0
    7.1040    8.8974   -3.1654 C   0  0  0  1  0  0
    6.4727    8.5107   -1.8911 C   0  0  0  1  0  0
    7.0028   10.3210   -3.5071 C   0  0  0  1  0  0
    6.1965    9.4236   -0.9300 C   0  0  0  1  0  0
    6.3457   10.8649   -1.2280 C   0  0  0  1  0  0
    7.7654    7.9978   -3.9226 C   0  0  0  1  0  0
    6.6737   11.2567   -2.6048 C   0  0  0  1  0  0
    8.6576    8.2636   -5.0565 C   0  0  0  1  0  0
   11.1990    7.0052   -7.2910 C   0  0  0  1  0  0
    9.5071    7.3827   -5.6151 C   0  0  0  1  0  0
   11.5497    7.6238   -8.6414 C   0  0  0  1  0  0
    5.9886    8.1668    0.4756 H   0  0
   10.5215    5.8438   -4.9976 H   0  0
    6.2915    7.4565   -1.7796 H   0  0
    7.1752   10.5965   -4.5150 H   0  0
    7.6904    6.9565   -3.7041 H   0  0
    6.6088   12.2921   -2.8735 H   0  0
    8.6426    9.2643   -5.4167 H   0  0
   12.0947    6.9259   -6.6773 H   0  0
   10.8449    5.9917   -7.4546 H   0  0
   11.9585    8.6273   -8.5243 H   0  0
   10.6577    7.6956   -9.2645 H   0  0
   12.2889    7.0209   -9.1688 H   0  0
  1 13  1  0
  1 14  1  0
  2  8  1  0
  3  9  2  0
  4 14  1  0
  5  6  1  0
  5  7  1  0
  5 10  2  0
  6  8  2  0
  7 11  2  0
  8  9  1  0
  9 11  1  0
 10 12  1  0
 12 14  2  0
 13 15  1  0
  2 16  1  0
  4 17  1  0
  6 18  1  0
  7 19  1  0
 10 20  1  0
 11 21  1  0
 12 22  1  0
 13 23  1  0
 13 24  1  0
 15 25  1  0
 15 26  1  0
 15 27  1  0
M  END
> <Name>
5317238

> <Binding Energy>
-28.1005

> <Ligand Energy>
9.1473

> <Protein Energy>
-7801.1566

> <Complex Energy>
-7820.1099

> <Complex Entropy>
-31.478

> <Protein Entropy>
-31.4717

> <Ligand Entropy>
-18.5679

> <Entropic Energy>
18.5616

> <AbsoluteEnergy>
18.2903

> <ConfNumber>
3

> <Ionization pH>
7.5

> <IonizationIndex>
1

> <MOL_NUMBER>
136

> <NumberOfIonizations>
1

> <NumberOfStereoisomers>
1

> <NumberOfTautomers>
2

> <PUBCHEM_ATOM_DEF_STEREO_COUNT>
0

> <PUBCHEM_ATOM_UDEF_STEREO_COUNT>
0

> <PUBCHEM_BOND_DEF_STEREO_COUNT>
1

> <PUBCHEM_BOND_UDEF_STEREO_COUNT>
0

> <PUBCHEM_CACTVS_TAUTO_COUNT>
10

> <PUBCHEM_COMPONENT_COUNT>
1

> <PUBCHEM_COMPOUND_CID>
5317238

> <PUBCHEM_CONFORMER_DIVERSEORDER>
1
15
22
13
25
3
20
2
19
10
14
4
18
6
17
21
24
9
16
5
7
11
8
12
23

> <PUBCHEM_CONFORMER_ID>
51227600000001

> <PUBCHEM_CONFORMER_RMSD>
0.6

> <PUBCHEM_COORDINATE_TYPE>
2
5
10

> <PUBCHEM_EFFECTIVE_ROTOR_COUNT>
4

> <PUBCHEM_FEATURE_SELFOVERLAP>
20.301

> <PUBCHEM_HEAVY_ATOM_COUNT>
15

> <PUBCHEM_ISOTOPIC_ATOM_COUNT>
0

> <PUBCHEM_MMFF94_ENERGY>
32.9292

> <PUBCHEM_MMFF94_PARTIAL_CHARGES>
21
1 -0.43
10 -0.18
11 -0.15
12 -0.14
13 0.28
14 0.71
16 0.15
17 0.15
18 0.15
19 0.15
2 -0.53
20 0.15
26 0.45
27 0.45
3 -0.53
4 -0.57
5 0.03
6 -0.15
7 -0.15
8 0.08
9 0.08

> <PUBCHEM_PHARMACOPHORE_FEATURES>
4
1 2 donor
1 3 donor
1 4 acceptor
6 5 6 7 8 9 11 rings

> <PUBCHEM_SHAPE_FINGERPRINT>
10014705 185 18260545598167537157
11128504 68 14405181807454177032
11132069 177 18260271815392649685
11401426 45 18114179726969226541
13214271 11 18413387640234705999
13897977 58 18410575097669508036
14123238 8 18408040728020933346
15048467 5 18201721730276385129
15196674 1 18410575059036050742
15501527 16 18413390933978996552
18522853 276 18409167705753947540
200 152 17632289065172041661
20510252 161 18341897350962291849
20645477 56 18410011022339677141
20645477 70 17631454471385647246
21637258 2 15285939017237006737
22485316 2 18409448063775306643
23272321 79 18336265747263563420
23402539 116 18261386771448586958
23402655 69 18060417997822255860
23557571 272 18271816743202821502
23559900 14 18339923706400693622
2916195 48 18271799177388175632
300161 21 18261105253516772517
3545911 37 18410857638167256356
4214541 1 18409730638479650060
42788 4 18411418427952444848
449060 50 18411136927053079740
5104073 3 18336549317672586434
542803 24 14764630819874606410
77779 3 18411139100185270478
9709674 26 18409175402240792630

> <PUBCHEM_SHAPE_MULTIPOLES>
285.22
11.96
1.55
0.63
12.28
0.01
0
2.69
1.44
-0.69
-0.02
0.04
0
0.52

> <PUBCHEM_SHAPE_SELFOVERLAP>
588.367

> <PUBCHEM_SHAPE_VOLUME>
163.8

> <RelativeEnergy>
0.0610227

> <StereoisomerIndex>
1

> <TautomerIndex>
2

> <POSE_NUMBER>
1

> <LibDockScore>
101.8796

> <HotSpots>
4.21,9.07,-0.26,P,84,2
8.01,10.07,-2.25,A,50,7
10.81,8.27,-8.46,A,35,15

> <-In-Situ Starting Energy>
-3344.43844

> <-In-Situ Final Energy>
13.2074863

> <In-Situ Gradient>
0.0007874607137

> <Favorable Total>
7

> <Unfavorable Total>
0

> <Charge Total>
0

> <Hydrophobic Total>
5

> <HydrogenBond Total>
2

> <Other Total>
0

> <Favorable A:LYS6>
0

> <Favorable A:ARG55>
0

> <Favorable A:LEU58>
0

> <Favorable A:LEU61>
0

> <Favorable A:ILE62>
0

> <Favorable A:GLY64>
0

> <Favorable A:SER65>
0

> <Favorable A:TRP66>
0

> <Favorable A:SER69>
0

> <Favorable A:VAL70>
0

> <Favorable A:PRO73>
0

> <Favorable A:ALA74>
0

> <Favorable A:PHE76>
0

> <Favorable A:ALA77>
0

> <Favorable A:THR78>
0

> <Favorable A:GLU79>
0

> <Favorable A:PHE82>
0

> <Favorable A:ARG83>
0

> <Favorable A:LEU85>
0

> <Favorable A:THR86>
0

> <Favorable A:TRP89>
1

> <Favorable A:THR90>
1

> <Favorable A:ASN93>
1

> <Favorable A:HIS94>
0

> <Favorable A:SER96>
0

> <Favorable A:VAL97>
0

> <Favorable A:TRP98>
1

> <Favorable A:PHE140>
0

> <Favorable A:LEU141>
0

> <Favorable A:ASN144>
0

> <Favorable A:ILE148>
1

> <Favorable A:ILE150>
0

> <Favorable A:HIS151>
0

> <Favorable A:ILE152>
0

> <Favorable A:ALA154>
0

> <Favorable A:SER155>
0

> <Favorable A:ILE156>
0

> <Favorable A:GLY158>
0

> <Favorable A:TYR159>
0

> <Favorable A:ARG160>
0

> <Favorable A:ARG161>
0

> <Favorable A:ASN162>
0

> <Favorable A:LYS163>
0

> <Favorable A:SER167>
0

> <Favorable A:ASP168>
0

> <Favorable A:SER169>
0

> <Favorable A:ASN171>
0

> <Favorable A:PHE172>
0

> <Favorable A:THR173>
0

> <Favorable A:ARG174>
0

> <Favorable A:PHE175>
0

> <Favorable A:SER176>
0

> <Favorable A:SER177>
0

> <Favorable A:LEU178>
0

> <Favorable A:ILE179>
1

> <Favorable A:VAL180>
0

> <Favorable A:LEU181>
0

> <Favorable A:SER183>
0

> <Favorable A:THR184>
0

> <Favorable A:PHE186>
0

> <Favorable A:ILE187>
1

> <Favorable A:PHE188>
0

> <Favorable A:ILE189>
0

> <Favorable A:PRO190>
0

> <Favorable A:PHE191>
0

> <Favorable A:TYR240>
0

> <Favorable A:PHE243>
0

> <Favorable A:SER244>
0

> <Favorable A:PHE247>
0

> <Favorable A:PHE248>
0

> <Favorable A:VAL251>
0

> <Favorable A:TRP252>
0

> <Favorable A:SER254>
0

> <Favorable A:GLU255>
0

> <Favorable A:ARG256>
0

> <Favorable A:LEU257>
0

> <Favorable A:GLU258>
0

> <Favorable A:GLU259>
0

> <Favorable A:LEU261>
0

> <Favorable A:ILE262>
0

> <Favorable A:ILE263>
0

> <Favorable A:SER265>
0

> <Favorable A:GLN266>
0

> <Favorable A:MET268>
0

> <Favorable A:GLY269>
0

> <Favorable A:TYR272>
0

> <Favorable A:PRO273>
0

> <Unfavorable A:ARG55>
0

> <Unfavorable A:PRO73>
0

> <Unfavorable A:PHE76>
0

> <Unfavorable A:GLU79>
0

> <Unfavorable A:ARG83>
0

> <Unfavorable A:THR86>
0

> <Unfavorable A:TRP89>
0

> <Unfavorable A:THR90>
0

> <Unfavorable A:ASN93>
0

> <Unfavorable A:TRP98>
0

> <Unfavorable A:ASN144>
0

> <Unfavorable A:SER155>
0

> <Unfavorable A:GLY158>
0

> <Unfavorable A:TYR159>
0

> <Unfavorable A:ASN162>
0

> <Unfavorable A:ASP168>
0

> <Unfavorable A:ASN171>
0

> <Unfavorable A:THR173>
0

> <Unfavorable A:ARG174>
0

> <Unfavorable A:SER183>
0

> <Unfavorable A:THR184>
0

> <Unfavorable A:PHE186>
0

> <Unfavorable A:SER244>
0

> <Unfavorable A:SER254>
0

> <Unfavorable A:GLU255>
0

> <Unfavorable A:SER265>
0

> <Unfavorable A:GLN266>
0

> <Unfavorable A:GLY269>
0

> <Charge A:ARG55>
0

> <Charge A:PHE76>
0

> <Charge A:GLU79>
0

> <Charge A:PHE82>
0

> <Charge A:ARG83>
0

> <Charge A:TRP89>
0

> <Charge A:HIS94>
0

> <Charge A:TRP98>
0

> <Charge A:TYR159>
0

> <Charge A:ARG161>
0

> <Charge A:LYS163>
0

> <Charge A:ASP168>
0

> <Charge A:PHE172>
0

> <Charge A:ARG174>
0

> <Charge A:PHE175>
0

> <Charge A:PHE188>
0

> <Charge A:PHE247>
0

> <Charge A:PHE248>
0

> <Hydrophobic A:LEU58>
0

> <Hydrophobic A:LEU61>
0

> <Hydrophobic A:ILE62>
0

> <Hydrophobic A:TRP66>
0

> <Hydrophobic A:VAL70>
0

> <Hydrophobic A:PRO73>
0

> <Hydrophobic A:ALA74>
0

> <Hydrophobic A:PHE76>
0

> <Hydrophobic A:ALA77>
0

> <Hydrophobic A:THR78>
0

> <Hydrophobic A:PHE82>
0

> <Hydrophobic A:ARG83>
0

> <Hydrophobic A:LEU85>
0

> <Hydrophobic A:TRP89>
1

> <Hydrophobic A:THR90>
0

> <Hydrophobic A:ASN93>
1

> <Hydrophobic A:HIS94>
0

> <Hydrophobic A:VAL97>
0

> <Hydrophobic A:TRP98>
0

> <Hydrophobic A:PHE140>
0

> <Hydrophobic A:LEU141>
0

> <Hydrophobic A:ILE148>
1

> <Hydrophobic A:ILE150>
0

> <Hydrophobic A:HIS151>
0

> <Hydrophobic A:ILE152>
0

> <Hydrophobic A:ALA154>
0

> <Hydrophobic A:SER155>
0

> <Hydrophobic A:ILE156>
0

> <Hydrophobic A:GLY158>
0

> <Hydrophobic A:TYR159>
0

> <Hydrophobic A:ARG160>
0

> <Hydrophobic A:ARG161>
0

> <Hydrophobic A:ASP168>
0

> <Hydrophobic A:ASN171>
0

> <Hydrophobic A:PHE172>
0

> <Hydrophobic A:ARG174>
0

> <Hydrophobic A:PHE175>
0

> <Hydrophobic A:LEU178>
0

> <Hydrophobic A:ILE179>
1

> <Hydrophobic A:VAL180>
0

> <Hydrophobic A:LEU181>
0

> <Hydrophobic A:PHE186>
0

> <Hydrophobic A:ILE187>
1

> <Hydrophobic A:PHE188>
0

> <Hydrophobic A:ILE189>
0

> <Hydrophobic A:PRO190>
0

> <Hydrophobic A:PHE191>
0

> <Hydrophobic A:TYR240>
0

> <Hydrophobic A:PHE243>
0

> <Hydrophobic A:PHE247>
0

> <Hydrophobic A:PHE248>
0

> <Hydrophobic A:VAL251>
0

> <Hydrophobic A:TRP252>
0

> <Hydrophobic A:SER254>
0

> <Hydrophobic A:LEU261>
0

> <Hydrophobic A:ILE262>
0

> <Hydrophobic A:ILE263>
0

> <Hydrophobic A:TYR272>
0

> <Hydrophobic A:PRO273>
0

> <HydrogenBond A:LYS6>
0

> <HydrogenBond A:ARG55>
0

> <HydrogenBond A:GLY64>
0

> <HydrogenBond A:SER65>
0

> <HydrogenBond A:TRP66>
0

> <HydrogenBond A:SER69>
0

> <HydrogenBond A:PRO73>
0

> <HydrogenBond A:ALA74>
0

> <HydrogenBond A:PHE76>
0

> <HydrogenBond A:ALA77>
0

> <HydrogenBond A:THR78>
0

> <HydrogenBond A:GLU79>
0

> <HydrogenBond A:PHE82>
0

> <HydrogenBond A:ARG83>
0

> <HydrogenBond A:LEU85>
0

> <HydrogenBond A:THR86>
0

> <HydrogenBond A:TRP89>
0

> <HydrogenBond A:THR90>
1

> <HydrogenBond A:ASN93>
0

> <HydrogenBond A:HIS94>
0

> <HydrogenBond A:SER96>
0

> <HydrogenBond A:TRP98>
1

> <HydrogenBond A:ASN144>
0

> <HydrogenBond A:HIS151>
0

> <HydrogenBond A:ILE152>
0

> <HydrogenBond A:ALA154>
0

> <HydrogenBond A:SER155>
0

> <HydrogenBond A:ILE156>
0

> <HydrogenBond A:GLY158>
0

> <HydrogenBond A:TYR159>
0

> <HydrogenBond A:ASN162>
0

> <HydrogenBond A:LYS163>
0

> <HydrogenBond A:SER167>
0

> <HydrogenBond A:ASP168>
0

> <HydrogenBond A:SER169>
0

> <HydrogenBond A:ASN171>
0

> <HydrogenBond A:PHE172>
0

> <HydrogenBond A:THR173>
0

> <HydrogenBond A:ARG174>
0

> <HydrogenBond A:PHE175>
0

> <HydrogenBond A:SER176>
0

> <HydrogenBond A:SER177>
0

> <HydrogenBond A:ILE179>
0

> <HydrogenBond A:VAL180>
0

> <HydrogenBond A:SER183>
0

> <HydrogenBond A:THR184>
0

> <HydrogenBond A:PHE186>
0

> <HydrogenBond A:ILE187>
0

> <HydrogenBond A:PRO190>
0

> <HydrogenBond A:TYR240>
0

> <HydrogenBond A:PHE243>
0

> <HydrogenBond A:SER244>
0

> <HydrogenBond A:PHE247>
0

> <HydrogenBond A:VAL251>
0

> <HydrogenBond A:SER254>
0

> <HydrogenBond A:GLU255>
0

> <HydrogenBond A:ARG256>
0

> <HydrogenBond A:LEU257>
0

> <HydrogenBond A:GLU258>
0

> <HydrogenBond A:GLU259>
0

> <HydrogenBond A:ILE262>
0

> <HydrogenBond A:SER265>
0

> <HydrogenBond A:GLN266>
0

> <HydrogenBond A:MET268>
0

> <HydrogenBond A:GLY269>
0

> <HydrogenBond A:PRO273>
0

> <Other A:SER69>
0

> <Other A:TRP89>
0

> <Other A:TYR159>
0

> <Other A:PHE172>
0

> <Other A:SER176>
0

> <Other A:SER265>
0

$$$$
5319562
  SciTegic09122300493D

 23 23  0  0  0  0            999 V2000
    5.9450   10.9530   -0.1766 O   0  0  0  1  0  0
   10.3854    6.0522   -5.6343 O   0  0  0  1  0  0
   10.0490    8.2835   -6.5346 O   0  0  0  1  0  0
    7.3257    9.1067   -3.5337 C   0  0  0  1  0  0
    6.8458    8.3132   -2.3859 C   0  0  0  1  0  0
    7.0153   10.5418   -3.4770 C   0  0  0  1  0  0
    6.3666    8.8950   -1.2623 C   0  0  0  1  0  0
    6.6915   11.1638   -2.3340 C   0  0  0  1  0  0
    8.0739    8.6683   -4.5684 C   0  0  0  1  0  0
    6.3271   10.3735   -1.1461 C   0  0  0  1  0  0
    8.6580    7.3593   -4.8791 C   0  0  0  1  0  0
    9.7085    7.2210   -5.7151 C   0  0  0  1  0  0
   11.4878    5.7807   -6.4851 C   0  0  0  1  0  0
   10.9081    8.2168   -6.9445 H   0  0
    6.9215    7.2464   -2.4472 H   0  0
    7.0945   11.1006   -4.3834 H   0  0
    6.0183    8.3041   -0.4360 H   0  0
    6.6830   12.2334   -2.2844 H   0  0
    8.3772    9.3691   -5.3044 H   0  0
    8.2540    6.5121   -4.3641 H   0  0
   12.3482    6.4086   -6.2541 H   0  0
   11.2199    5.8697   -7.5392 H   0  0
   11.8074    4.7503   -6.3290 H   0  0
  1 10  2  0
  2 12  1  0
  2 13  1  0
  3 12  1  0
  4  5  1  0
  4  6  1  0
  4  9  2  0
  5  7  2  0
  6  8  2  0
  7 10  1  0
  8 10  1  0
  9 11  1  0
 11 12  2  0
  3 14  1  0
  5 15  1  0
  6 16  1  0
  7 17  1  0
  8 18  1  0
  9 19  1  0
 11 20  1  0
 13 21  1  0
 13 22  1  0
 13 23  1  0
M  END
> <Name>
5319562

> <Binding Energy>
-36.256

> <Ligand Energy>
2.8109

> <Protein Energy>
-7801.1566

> <Complex Energy>
-7834.6018

> <Complex Entropy>
-31.4771

> <Protein Entropy>
-31.4717

> <Ligand Entropy>
-18.0832

> <Entropic Energy>
18.0778

> <AbsoluteEnergy>
23.8901

> <ConfNumber>
7

> <Ionization pH>
7.5

> <IonizationIndex>
1

> <MOL_NUMBER>
138

> <NumberOfIonizations>
1

> <NumberOfStereoisomers>
1

> <NumberOfTautomers>
2

> <PUBCHEM_ATOM_DEF_STEREO_COUNT>
0

> <PUBCHEM_ATOM_UDEF_STEREO_COUNT>
0

> <PUBCHEM_BOND_DEF_STEREO_COUNT>
1

> <PUBCHEM_BOND_UDEF_STEREO_COUNT>
0

> <PUBCHEM_CACTVS_TAUTO_COUNT>
2

> <PUBCHEM_COMPONENT_COUNT>
1

> <PUBCHEM_COMPOUND_CID>
5319562

> <PUBCHEM_CONFORMER_DIVERSEORDER>
1
3
2

> <PUBCHEM_CONFORMER_ID>
00512B8A00000001

> <PUBCHEM_CONFORMER_RMSD>
0.6

> <PUBCHEM_COORDINATE_TYPE>
2
5
10

> <PUBCHEM_EFFECTIVE_ROTOR_COUNT>
3

> <PUBCHEM_FEATURE_SELFOVERLAP>
15.223

> <PUBCHEM_HEAVY_ATOM_COUNT>
13

> <PUBCHEM_ISOTOPIC_ATOM_COUNT>
0

> <PUBCHEM_MMFF94_ENERGY>
33.017

> <PUBCHEM_MMFF94_PARTIAL_CHARGES>
20
1 -0.53
10 0.08
11 -0.14
12 0.71
13 0.28
14 0.15
15 0.15
16 0.15
17 0.15
18 0.15
19 0.15
2 -0.43
20 0.45
3 -0.57
4 0.03
5 -0.15
6 -0.15
7 -0.15
8 -0.15
9 -0.18

> <PUBCHEM_PHARMACOPHORE_FEATURES>
3
1 1 donor
1 3 acceptor
6 4 5 6 7 8 10 rings

> <PUBCHEM_SHAPE_FINGERPRINT>
10608611 8 18409727400032370769
11062470 55 18410575076078432074
11401426 45 18273210911262347552
11471102 20 18413387614222211374
12500047 106 18335980943476214755
12932764 1 17313654993330974651
13922767 16 18342453764075754256
14325111 11 18410855486087980107
14415576 193 18409452509277454820
14993402 34 16988843886534150436
17834072 33 18201432606321252647
18186145 218 18113894948941274991
190213 19 17632861931661753779
200 152 17918270952850744923
20279233 1 18333456438924524443
20606313 2 18412826884861963996
20645477 56 18260266339757766045
20645477 70 18200313216947118583
21119208 17 17775284962805262373
212847 35 18334575724492086244
22485316 2 18335419062700527347
23402539 116 18186513332511196990
23402655 69 18343864411444734245
23559900 14 18410575063832249506
3060560 45 17917997170281924326
3545911 37 18410857663952851793
4047638 21 18259706687917137402
4072396 5 18339630171477387650
4990 188 18059866073176536254
5104073 3 18408885148228987019
522135 26 18412825755027076358
77779 3 18410576193218373891

> <PUBCHEM_SHAPE_MULTIPOLES>
249.93
9.56
1.31
0.62
6.9
0.12
0
-1.9
-0.65
-0.35
0.02
0
0
0.28

> <PUBCHEM_SHAPE_SELFOVERLAP>
516.503

> <PUBCHEM_SHAPE_VOLUME>
143.9

> <RelativeEnergy>
6.27945

> <StereoisomerIndex>
1

> <TautomerIndex>
2

> <POSE_NUMBER>
1

> <LibDockScore>
94.4273

> <HotSpots>
5.01,10.27,-0.85,P,81,1
10.01,10.27,-5.66,P,55,3
7.21,9.27,-3.25,A,45,5

> <-In-Situ Starting Energy>
-24341.8394

> <-In-Situ Final Energy>
15.5677088

> <In-Situ Gradient>
0.0009967771208

> <Favorable Total>
5

> <Unfavorable Total>
0

> <Charge Total>
0

> <Hydrophobic Total>
2

> <HydrogenBond Total>
3

> <Other Total>
0

> <Favorable A:LYS6>
0

> <Favorable A:ARG55>
0

> <Favorable A:LEU58>
0

> <Favorable A:LEU61>
0

> <Favorable A:ILE62>
0

> <Favorable A:GLY64>
0

> <Favorable A:SER65>
0

> <Favorable A:TRP66>
0

> <Favorable A:SER69>
0

> <Favorable A:VAL70>
0

> <Favorable A:PRO73>
0

> <Favorable A:ALA74>
0

> <Favorable A:PHE76>
0

> <Favorable A:ALA77>
0

> <Favorable A:THR78>
0

> <Favorable A:GLU79>
0

> <Favorable A:PHE82>
0

> <Favorable A:ARG83>
0

> <Favorable A:LEU85>
0

> <Favorable A:THR86>
0

> <Favorable A:TRP89>
1

> <Favorable A:THR90>
1

> <Favorable A:ASN93>
1

> <Favorable A:HIS94>
0

> <Favorable A:SER96>
0

> <Favorable A:VAL97>
0

> <Favorable A:TRP98>
1

> <Favorable A:PHE140>
0

> <Favorable A:LEU141>
0

> <Favorable A:ASN144>
0

> <Favorable A:ILE148>
0

> <Favorable A:ILE150>
0

> <Favorable A:HIS151>
0

> <Favorable A:ILE152>
0

> <Favorable A:ALA154>
0

> <Favorable A:SER155>
0

> <Favorable A:ILE156>
0

> <Favorable A:GLY158>
0

> <Favorable A:TYR159>
0

> <Favorable A:ARG160>
0

> <Favorable A:ARG161>
0

> <Favorable A:ASN162>
0

> <Favorable A:LYS163>
0

> <Favorable A:SER167>
0

> <Favorable A:ASP168>
0

> <Favorable A:SER169>
0

> <Favorable A:ASN171>
0

> <Favorable A:PHE172>
0

> <Favorable A:THR173>
0

> <Favorable A:ARG174>
0

> <Favorable A:PHE175>
0

> <Favorable A:SER176>
0

> <Favorable A:SER177>
0

> <Favorable A:LEU178>
0

> <Favorable A:ILE179>
0

> <Favorable A:VAL180>
0

> <Favorable A:LEU181>
0

> <Favorable A:SER183>
0

> <Favorable A:THR184>
0

> <Favorable A:PHE186>
0

> <Favorable A:ILE187>
1

> <Favorable A:PHE188>
0

> <Favorable A:ILE189>
0

> <Favorable A:PRO190>
0

> <Favorable A:PHE191>
0

> <Favorable A:TYR240>
0

> <Favorable A:PHE243>
0

> <Favorable A:SER244>
0

> <Favorable A:PHE247>
0

> <Favorable A:PHE248>
0

> <Favorable A:VAL251>
0

> <Favorable A:TRP252>
0

> <Favorable A:SER254>
0

> <Favorable A:GLU255>
0

> <Favorable A:ARG256>
0

> <Favorable A:LEU257>
0

> <Favorable A:GLU258>
0

> <Favorable A:GLU259>
0

> <Favorable A:LEU261>
0

> <Favorable A:ILE262>
0

> <Favorable A:ILE263>
0

> <Favorable A:SER265>
0

> <Favorable A:GLN266>
0

> <Favorable A:MET268>
0

> <Favorable A:GLY269>
0

> <Favorable A:TYR272>
0

> <Favorable A:PRO273>
0

> <Unfavorable A:ARG55>
0

> <Unfavorable A:PRO73>
0

> <Unfavorable A:PHE76>
0

> <Unfavorable A:GLU79>
0

> <Unfavorable A:ARG83>
0

> <Unfavorable A:THR86>
0

> <Unfavorable A:TRP89>
0

> <Unfavorable A:THR90>
0

> <Unfavorable A:ASN93>
0

> <Unfavorable A:TRP98>
0

> <Unfavorable A:ASN144>
0

> <Unfavorable A:SER155>
0

> <Unfavorable A:GLY158>
0

> <Unfavorable A:TYR159>
0

> <Unfavorable A:ASN162>
0

> <Unfavorable A:ASP168>
0

> <Unfavorable A:ASN171>
0

> <Unfavorable A:THR173>
0

> <Unfavorable A:ARG174>
0

> <Unfavorable A:SER183>
0

> <Unfavorable A:THR184>
0

> <Unfavorable A:PHE186>
0

> <Unfavorable A:SER244>
0

> <Unfavorable A:SER254>
0

> <Unfavorable A:GLU255>
0

> <Unfavorable A:SER265>
0

> <Unfavorable A:GLN266>
0

> <Unfavorable A:GLY269>
0

> <Charge A:ARG55>
0

> <Charge A:PHE76>
0

> <Charge A:GLU79>
0

> <Charge A:PHE82>
0

> <Charge A:ARG83>
0

> <Charge A:TRP89>
0

> <Charge A:HIS94>
0

> <Charge A:TRP98>
0

> <Charge A:TYR159>
0

> <Charge A:ARG161>
0

> <Charge A:LYS163>
0

> <Charge A:ASP168>
0

> <Charge A:PHE172>
0

> <Charge A:ARG174>
0

> <Charge A:PHE175>
0

> <Charge A:PHE188>
0

> <Charge A:PHE247>
0

> <Charge A:PHE248>
0

> <Hydrophobic A:LEU58>
0

> <Hydrophobic A:LEU61>
0

> <Hydrophobic A:ILE62>
0

> <Hydrophobic A:TRP66>
0

> <Hydrophobic A:VAL70>
0

> <Hydrophobic A:PRO73>
0

> <Hydrophobic A:ALA74>
0

> <Hydrophobic A:PHE76>
0

> <Hydrophobic A:ALA77>
0

> <Hydrophobic A:THR78>
0

> <Hydrophobic A:PHE82>
0

> <Hydrophobic A:ARG83>
0

> <Hydrophobic A:LEU85>
0

> <Hydrophobic A:TRP89>
0

> <Hydrophobic A:THR90>
0

> <Hydrophobic A:ASN93>
1

> <Hydrophobic A:HIS94>
0

> <Hydrophobic A:VAL97>
0

> <Hydrophobic A:TRP98>
0

> <Hydrophobic A:PHE140>
0

> <Hydrophobic A:LEU141>
0

> <Hydrophobic A:ILE148>
0

> <Hydrophobic A:ILE150>
0

> <Hydrophobic A:HIS151>
0

> <Hydrophobic A:ILE152>
0

> <Hydrophobic A:ALA154>
0

> <Hydrophobic A:SER155>
0

> <Hydrophobic A:ILE156>
0

> <Hydrophobic A:GLY158>
0

> <Hydrophobic A:TYR159>
0

> <Hydrophobic A:ARG160>
0

> <Hydrophobic A:ARG161>
0

> <Hydrophobic A:ASP168>
0

> <Hydrophobic A:ASN171>
0

> <Hydrophobic A:PHE172>
0

> <Hydrophobic A:ARG174>
0

> <Hydrophobic A:PHE175>
0

> <Hydrophobic A:LEU178>
0

> <Hydrophobic A:ILE179>
0

> <Hydrophobic A:VAL180>
0

> <Hydrophobic A:LEU181>
0

> <Hydrophobic A:PHE186>
0

> <Hydrophobic A:ILE187>
1

> <Hydrophobic A:PHE188>
0

> <Hydrophobic A:ILE189>
0

> <Hydrophobic A:PRO190>
0

> <Hydrophobic A:PHE191>
0

> <Hydrophobic A:TYR240>
0

> <Hydrophobic A:PHE243>
0

> <Hydrophobic A:PHE247>
0

> <Hydrophobic A:PHE248>
0

> <Hydrophobic A:VAL251>
0

> <Hydrophobic A:TRP252>
0

> <Hydrophobic A:SER254>
0

> <Hydrophobic A:LEU261>
0

> <Hydrophobic A:ILE262>
0

> <Hydrophobic A:ILE263>
0

> <Hydrophobic A:TYR272>
0

> <Hydrophobic A:PRO273>
0

> <HydrogenBond A:LYS6>
0

> <HydrogenBond A:ARG55>
0

> <HydrogenBond A:GLY64>
0

> <HydrogenBond A:SER65>
0

> <HydrogenBond A:TRP66>
0

> <HydrogenBond A:SER69>
0

> <HydrogenBond A:PRO73>
0

> <HydrogenBond A:ALA74>
0

> <HydrogenBond A:PHE76>
0

> <HydrogenBond A:ALA77>
0

> <HydrogenBond A:THR78>
0

> <HydrogenBond A:GLU79>
0

> <HydrogenBond A:PHE82>
0

> <HydrogenBond A:ARG83>
0

> <HydrogenBond A:LEU85>
0

> <HydrogenBond A:THR86>
0

> <HydrogenBond A:TRP89>
1

> <HydrogenBond A:THR90>
1

> <HydrogenBond A:ASN93>
0

> <HydrogenBond A:HIS94>
0

> <HydrogenBond A:SER96>
0

> <HydrogenBond A:TRP98>
1

> <HydrogenBond A:ASN144>
0

> <HydrogenBond A:HIS151>
0

> <HydrogenBond A:ILE152>
0

> <HydrogenBond A:ALA154>
0

> <HydrogenBond A:SER155>
0

> <HydrogenBond A:ILE156>
0

> <HydrogenBond A:GLY158>
0

> <HydrogenBond A:TYR159>
0

> <HydrogenBond A:ASN162>
0

> <HydrogenBond A:LYS163>
0

> <HydrogenBond A:SER167>
0

> <HydrogenBond A:ASP168>
0

> <HydrogenBond A:SER169>
0

> <HydrogenBond A:ASN171>
0

> <HydrogenBond A:PHE172>
0

> <HydrogenBond A:THR173>
0

> <HydrogenBond A:ARG174>
0

> <HydrogenBond A:PHE175>
0

> <HydrogenBond A:SER176>
0

> <HydrogenBond A:SER177>
0

> <HydrogenBond A:ILE179>
0

> <HydrogenBond A:VAL180>
0

> <HydrogenBond A:SER183>
0

> <HydrogenBond A:THR184>
0

> <HydrogenBond A:PHE186>
0

> <HydrogenBond A:ILE187>
0

> <HydrogenBond A:PRO190>
0

> <HydrogenBond A:TYR240>
0

> <HydrogenBond A:PHE243>
0

> <HydrogenBond A:SER244>
0

> <HydrogenBond A:PHE247>
0

> <HydrogenBond A:VAL251>
0

> <HydrogenBond A:SER254>
0

> <HydrogenBond A:GLU255>
0

> <HydrogenBond A:ARG256>
0

> <HydrogenBond A:LEU257>
0

> <HydrogenBond A:GLU258>
0

> <HydrogenBond A:GLU259>
0

> <HydrogenBond A:ILE262>
0

> <HydrogenBond A:SER265>
0

> <HydrogenBond A:GLN266>
0

> <HydrogenBond A:MET268>
0

> <HydrogenBond A:GLY269>
0

> <HydrogenBond A:PRO273>
0

> <Other A:SER69>
0

> <Other A:TRP89>
0

> <Other A:TYR159>
0

> <Other A:PHE172>
0

> <Other A:SER176>
0

> <Other A:SER265>
0

$$$$
5319879
  SciTegic09122300493D

 65 64  0  0  0  0            999 V2000
   11.4739    0.0327   -9.1912 O   0  0  0  1  0  0
   12.0745   -1.2220  -10.9471 O   0  0  0  1  0  0
   14.8559   -1.1403   -8.3964 O   0  0  0  1  0  0
   11.3233    0.8490   -6.8427 O   0  0  0  1  0  0
   12.2870    3.1939  -10.4114 C   0  0  0  1  0  0
   12.3101    4.1836   -9.2427 C   0  0  0  1  0  0
    9.0033    8.1739   -4.9657 C   0  0  0  1  0  0
    8.9492    6.6444   -4.9331 C   0  0  0  1  0  0
   10.8431    2.8036  -10.7576 C   0  0  0  1  0  0
    9.0454    8.8745   -3.6173 C   0  0  0  1  0  0
   13.6459    4.9264   -9.0575 C   0  0  0  1  0  0
   10.2788    5.8790   -4.6347 C   0  0  0  1  0  0
   10.7320    1.7083  -11.8295 C   0  0  0  1  0  0
    7.6471    9.0008   -2.9760 C   0  0  0  1  0  0
   13.6403    5.7676   -7.7723 C   0  0  0  1  0  0
   11.2264    5.5145   -5.8043 C   0  0  0  1  0  0
    7.6390    9.8921   -1.7224 C   0  0  0  1  0  0
   10.2890    0.3481  -11.2698 C   0  0  0  1  0  0
   12.4338    6.6660   -7.7322 C   0  0  0  1  0  0
   11.3631    6.5004   -6.9359 C   0  0  0  1  0  0
    6.6411   11.0451   -1.7910 C   0  0  0  1  0  0
   11.3770   -0.3482  -10.4528 C   0  0  0  1  0  0
   12.4022   -0.6894   -8.3700 C   0  0  0  1  0  0
   13.8396   -0.1798   -8.6299 C   0  0  0  1  0  0
   11.9238   -0.4338   -6.9329 C   0  0  0  1  0  0
   14.6801   -1.5949   -7.5709 H   0  0
   10.9411    1.0479   -7.7012 H   0  0
   12.8718    2.3104  -10.1546 H   0  0
   12.7588    3.6400  -11.2876 H   0  0
   11.5174    4.9158   -9.4002 H   0  0
   12.0507    3.6527   -8.3256 H   0  0
    9.8126    8.5084   -5.5955 H   0  0
    8.1074    8.5334   -5.4424 H   0  0
    8.1473    6.3365   -4.2663 H   0  0
    8.5328    6.3587   -5.8688 H   0  0
   10.3213    3.6960  -11.1065 H   0  0
   10.3142    2.4978   -9.8552 H   0  0
    9.7712    8.3795   -2.9840 H   0  0
    9.4458    9.8697   -3.7695 H   0  0
   14.4696    4.2129   -9.0199 H   0  0
   13.8300    5.5684   -9.9199 H   0  0
   10.0084    4.9306   -4.1682 H   0  0
   10.8436    6.3854   -3.8599 H   0  0
    9.9834    2.0211  -12.5582 H   0  0
   11.6629    1.6106  -12.3901 H   0  0
    7.2637    8.0112   -2.7265 H   0  0
    6.9493    9.4058   -3.7111 H   0  0
   14.5423    6.3734   -7.7221 H   0  0
   13.6589    5.1005   -6.9125 H   0  0
   10.9796    4.5409   -6.2211 H   0  0
   12.2120    5.3384   -5.3744 H   0  0
    8.6401   10.2803   -1.5558 H   0  0
    7.3981    9.2997   -0.8399 H   0  0
   10.0277   -0.3180  -12.0911 H   0  0
    9.3982    0.4476  -10.6552 H   0  0
   12.4839    7.5275   -8.3730 H   0  0
   10.5606    7.1983   -7.0442 H   0  0
    5.6280   10.6556   -1.8015 H   0  0
    6.7803   11.6457   -2.6877 H   0  0
    6.7349   11.6938   -0.9198 H   0  0
   12.3416   -1.7567   -8.5929 H   0  0
   14.0475    0.7250   -8.0525 H   0  0
   13.9388    0.1102   -9.6758 H   0  0
   12.7374   -0.4933   -6.2095 H   0  0
   11.1822   -1.1817   -6.6404 H   0  0
  1 22  1  0
  1 23  1  0
  2 22  2  0
  3 24  1  0
  4 25  1  0
  5  6  1  0
  5  9  1  0
  6 11  1  0
  7  8  1  0
  7 10  1  0
  8 12  1  0
  9 13  1  0
 10 14  1  0
 11 15  1  0
 12 16  1  0
 13 18  1  0
 14 17  1  0
 15 19  1  0
 16 20  1  0
 17 21  1  0
 18 22  1  0
 19 20  2  0
 23 24  1  0
 23 25  1  0
  3 26  1  0
  4 27  1  0
  5 28  1  0
  5 29  1  0
  6 30  1  0
  6 31  1  0
  7 32  1  0
  7 33  1  0
  8 34  1  0
  8 35  1  0
  9 36  1  0
  9 37  1  0
 10 38  1  0
 10 39  1  0
 11 40  1  0
 11 41  1  0
 12 42  1  0
 12 43  1  0
 13 44  1  0
 13 45  1  0
 14 46  1  0
 14 47  1  0
 15 48  1  0
 15 49  1  0
 16 50  1  0
 16 51  1  0
 17 52  1  0
 17 53  1  0
 18 54  1  0
 18 55  1  0
 19 56  1  0
 20 57  1  0
 21 58  1  0
 21 59  1  0
 21 60  1  0
 23 61  1  0
 24 62  1  0
 24 63  1  0
 25 64  1  0
 25 65  1  0
M  END
> <Name>
5319879

> <Binding Energy>
-65.7931

> <Ligand Energy>
26.4156

> <Protein Energy>
-7801.1566

> <Complex Energy>
-7840.5341

> <Complex Entropy>
-31.4832

> <Protein Entropy>
-31.4717

> <Ligand Entropy>
-20.2621

> <Entropic Energy>
20.2505

> <AbsoluteEnergy>
34.9078

> <ConfNumber>
221

> <IonizationIndex>
1

> <MOL_NUMBER>
139

> <NumberOfIonizations>
1

> <NumberOfStereoisomers>
1

> <NumberOfTautomers>
1

> <PUBCHEM_ATOM_DEF_STEREO_COUNT>
0

> <PUBCHEM_ATOM_UDEF_STEREO_COUNT>
0

> <PUBCHEM_BOND_DEF_STEREO_COUNT>
1

> <PUBCHEM_BOND_UDEF_STEREO_COUNT>
0

> <PUBCHEM_CACTVS_COMPLEXITY>
311

> <PUBCHEM_CACTVS_HBOND_ACCEPTOR>
4

> <PUBCHEM_CACTVS_HBOND_DONOR>
2

> <PUBCHEM_CACTVS_ROTATABLE_BOND>
19

> <PUBCHEM_CACTVS_SUBSKEYS>
AAADcfB4OAAAAAAAAAAAAAAAAAAAAAAAAAAAAAAAAAAAAAAAAAAAGgAACAAACBSggAICCAAABgCIACDSCAAAAAAgAAAICAEAAAgBEBIAAQACQAAFgAALAAOIyKCAAAAAAAAAAAAAAAAAAAAAAAAAAAAAAA==

> <PUBCHEM_CACTVS_TAUTO_COUNT>
1

> <PUBCHEM_CACTVS_TPSA>
66.8

> <PUBCHEM_COMPONENT_COUNT>
1

> <PUBCHEM_COMPOUND_CANONICALIZED>
1

> <PUBCHEM_COMPOUND_CID>
5319879

> <PUBCHEM_COORDINATE_TYPE>
1
5
255

> <PUBCHEM_EXACT_MASS>
356.29265975

> <PUBCHEM_HEAVY_ATOM_COUNT>
25

> <PUBCHEM_ISOTOPIC_ATOM_COUNT>
0

> <PUBCHEM_IUPAC_CAS_NAME>
(Z)-9-octadecenoic acid 1,3-dihydroxypropan-2-yl ester

> <PUBCHEM_IUPAC_INCHI>
InChI=1S/C21H40O4/c1-2-3-4-5-6-7-8-9-10-11-12-13-14-15-16-17-21(24)25-20(18-22)19-23/h9-10,20,22-23H,2-8,11-19H2,1H3/b10-9-

> <PUBCHEM_IUPAC_INCHIKEY>
UPWGQKDVAURUGE-KTKRTIGZSA-N

> <PUBCHEM_IUPAC_NAME>
1,3-dihydroxypropan-2-yl (Z)-octadec-9-enoate

> <PUBCHEM_IUPAC_NAME_MARKUP>
1,3-dihydroxypropan-2-yl (<I>Z</I>)-octadec-9-enoate

> <PUBCHEM_IUPAC_OPENEYE_NAME>
[2-hydroxy-1-(hydroxymethyl)ethyl] (Z)-octadec-9-enoate

> <PUBCHEM_IUPAC_SYSTEMATIC_NAME>
1,3-bis(oxidanyl)propan-2-yl (Z)-octadec-9-enoate

> <PUBCHEM_IUPAC_TRADITIONAL_NAME>
(Z)-octadec-9-enoic acid (2-hydroxy-1-methylol-ethyl) ester

> <PUBCHEM_MOLECULAR_FORMULA>
C21H40O4

> <PUBCHEM_MOLECULAR_WEIGHT>
356.5

> <PUBCHEM_MONOISOTOPIC_WEIGHT>
356.29265975

> <PUBCHEM_OPENEYE_CAN_SMILES>
CCCCCCCCC=CCCCCCCCC(=O)OC(CO)CO

> <PUBCHEM_OPENEYE_ISO_SMILES>
CCCCCCCC/C=C\CCCCCCCC(=O)OC(CO)CO

> <PUBCHEM_TOTAL_CHARGE>
0

> <PUBCHEM_XLOGP3_AA>
6.3

> <RelativeEnergy>
13.4322

> <StereoisomerIndex>
1

> <TautomerIndex>
1

> <POSE_NUMBER>
3

> <LibDockScore>
128.14

> <HotSpots>
9.21,3.67,-12.86,A,26,9
8.01,10.07,-2.25,A,50,17
10.81,8.27,-8.46,A,35,20

> <-In-Situ Starting Energy>
-12309.7256

> <-In-Situ Final Energy>
21.4276266

> <In-Situ Gradient>
0.0009262147268

> <Favorable Total>
6

> <Unfavorable Total>
0

> <Charge Total>
0

> <Hydrophobic Total>
2

> <HydrogenBond Total>
4

> <Other Total>
0

> <Favorable A:LYS6>
0

> <Favorable A:ARG55>
0

> <Favorable A:LEU58>
0

> <Favorable A:LEU61>
0

> <Favorable A:ILE62>
0

> <Favorable A:GLY64>
0

> <Favorable A:SER65>
0

> <Favorable A:TRP66>
0

> <Favorable A:SER69>
0

> <Favorable A:VAL70>
0

> <Favorable A:PRO73>
0

> <Favorable A:ALA74>
0

> <Favorable A:PHE76>
0

> <Favorable A:ALA77>
0

> <Favorable A:THR78>
0

> <Favorable A:GLU79>
0

> <Favorable A:PHE82>
0

> <Favorable A:ARG83>
0

> <Favorable A:LEU85>
0

> <Favorable A:THR86>
0

> <Favorable A:TRP89>
0

> <Favorable A:THR90>
0

> <Favorable A:ASN93>
0

> <Favorable A:HIS94>
1

> <Favorable A:SER96>
0

> <Favorable A:VAL97>
0

> <Favorable A:TRP98>
1

> <Favorable A:PHE140>
0

> <Favorable A:LEU141>
0

> <Favorable A:ASN144>
0

> <Favorable A:ILE148>
0

> <Favorable A:ILE150>
0

> <Favorable A:HIS151>
0

> <Favorable A:ILE152>
0

> <Favorable A:ALA154>
0

> <Favorable A:SER155>
0

> <Favorable A:ILE156>
0

> <Favorable A:GLY158>
0

> <Favorable A:TYR159>
0

> <Favorable A:ARG160>
0

> <Favorable A:ARG161>
0

> <Favorable A:ASN162>
0

> <Favorable A:LYS163>
0

> <Favorable A:SER167>
0

> <Favorable A:ASP168>
0

> <Favorable A:SER169>
0

> <Favorable A:ASN171>
0

> <Favorable A:PHE172>
0

> <Favorable A:THR173>
0

> <Favorable A:ARG174>
0

> <Favorable A:PHE175>
0

> <Favorable A:SER176>
0

> <Favorable A:SER177>
0

> <Favorable A:LEU178>
0

> <Favorable A:ILE179>
0

> <Favorable A:VAL180>
0

> <Favorable A:LEU181>
0

> <Favorable A:SER183>
0

> <Favorable A:THR184>
0

> <Favorable A:PHE186>
0

> <Favorable A:ILE187>
0

> <Favorable A:PHE188>
0

> <Favorable A:ILE189>
0

> <Favorable A:PRO190>
0

> <Favorable A:PHE191>
0

> <Favorable A:TYR240>
0

> <Favorable A:PHE243>
0

> <Favorable A:SER244>
0

> <Favorable A:PHE247>
0

> <Favorable A:PHE248>
0

> <Favorable A:VAL251>
0

> <Favorable A:TRP252>
0

> <Favorable A:SER254>
0

> <Favorable A:GLU255>
0

> <Favorable A:ARG256>
0

> <Favorable A:LEU257>
0

> <Favorable A:GLU258>
0

> <Favorable A:GLU259>
0

> <Favorable A:LEU261>
0

> <Favorable A:ILE262>
0

> <Favorable A:ILE263>
0

> <Favorable A:SER265>
3

> <Favorable A:GLN266>
1

> <Favorable A:MET268>
0

> <Favorable A:GLY269>
0

> <Favorable A:TYR272>
0

> <Favorable A:PRO273>
0

> <Unfavorable A:ARG55>
0

> <Unfavorable A:PRO73>
0

> <Unfavorable A:PHE76>
0

> <Unfavorable A:GLU79>
0

> <Unfavorable A:ARG83>
0

> <Unfavorable A:THR86>
0

> <Unfavorable A:TRP89>
0

> <Unfavorable A:THR90>
0

> <Unfavorable A:ASN93>
0

> <Unfavorable A:TRP98>
0

> <Unfavorable A:ASN144>
0

> <Unfavorable A:SER155>
0

> <Unfavorable A:GLY158>
0

> <Unfavorable A:TYR159>
0

> <Unfavorable A:ASN162>
0

> <Unfavorable A:ASP168>
0

> <Unfavorable A:ASN171>
0

> <Unfavorable A:THR173>
0

> <Unfavorable A:ARG174>
0

> <Unfavorable A:SER183>
0

> <Unfavorable A:THR184>
0

> <Unfavorable A:PHE186>
0

> <Unfavorable A:SER244>
0

> <Unfavorable A:SER254>
0

> <Unfavorable A:GLU255>
0

> <Unfavorable A:SER265>
0

> <Unfavorable A:GLN266>
0

> <Unfavorable A:GLY269>
0

> <Charge A:ARG55>
0

> <Charge A:PHE76>
0

> <Charge A:GLU79>
0

> <Charge A:PHE82>
0

> <Charge A:ARG83>
0

> <Charge A:TRP89>
0

> <Charge A:HIS94>
0

> <Charge A:TRP98>
0

> <Charge A:TYR159>
0

> <Charge A:ARG161>
0

> <Charge A:LYS163>
0

> <Charge A:ASP168>
0

> <Charge A:PHE172>
0

> <Charge A:ARG174>
0

> <Charge A:PHE175>
0

> <Charge A:PHE188>
0

> <Charge A:PHE247>
0

> <Charge A:PHE248>
0

> <Hydrophobic A:LEU58>
0

> <Hydrophobic A:LEU61>
0

> <Hydrophobic A:ILE62>
0

> <Hydrophobic A:TRP66>
0

> <Hydrophobic A:VAL70>
0

> <Hydrophobic A:PRO73>
0

> <Hydrophobic A:ALA74>
0

> <Hydrophobic A:PHE76>
0

> <Hydrophobic A:ALA77>
0

> <Hydrophobic A:THR78>
0

> <Hydrophobic A:PHE82>
0

> <Hydrophobic A:ARG83>
0

> <Hydrophobic A:LEU85>
0

> <Hydrophobic A:TRP89>
0

> <Hydrophobic A:THR90>
0

> <Hydrophobic A:ASN93>
0

> <Hydrophobic A:HIS94>
1

> <Hydrophobic A:VAL97>
0

> <Hydrophobic A:TRP98>
1

> <Hydrophobic A:PHE140>
0

> <Hydrophobic A:LEU141>
0

> <Hydrophobic A:ILE148>
0

> <Hydrophobic A:ILE150>
0

> <Hydrophobic A:HIS151>
0

> <Hydrophobic A:ILE152>
0

> <Hydrophobic A:ALA154>
0

> <Hydrophobic A:SER155>
0

> <Hydrophobic A:ILE156>
0

> <Hydrophobic A:GLY158>
0

> <Hydrophobic A:TYR159>
0

> <Hydrophobic A:ARG160>
0

> <Hydrophobic A:ARG161>
0

> <Hydrophobic A:ASP168>
0

> <Hydrophobic A:ASN171>
0

> <Hydrophobic A:PHE172>
0

> <Hydrophobic A:ARG174>
0

> <Hydrophobic A:PHE175>
0

> <Hydrophobic A:LEU178>
0

> <Hydrophobic A:ILE179>
0

> <Hydrophobic A:VAL180>
0

> <Hydrophobic A:LEU181>
0

> <Hydrophobic A:PHE186>
0

> <Hydrophobic A:ILE187>
0

> <Hydrophobic A:PHE188>
0

> <Hydrophobic A:ILE189>
0

> <Hydrophobic A:PRO190>
0

> <Hydrophobic A:PHE191>
0

> <Hydrophobic A:TYR240>
0

> <Hydrophobic A:PHE243>
0

> <Hydrophobic A:PHE247>
0

> <Hydrophobic A:PHE248>
0

> <Hydrophobic A:VAL251>
0

> <Hydrophobic A:TRP252>
0

> <Hydrophobic A:SER254>
0

> <Hydrophobic A:LEU261>
0

> <Hydrophobic A:ILE262>
0

> <Hydrophobic A:ILE263>
0

> <Hydrophobic A:TYR272>
0

> <Hydrophobic A:PRO273>
0

> <HydrogenBond A:LYS6>
0

> <HydrogenBond A:ARG55>
0

> <HydrogenBond A:GLY64>
0

> <HydrogenBond A:SER65>
0

> <HydrogenBond A:TRP66>
0

> <HydrogenBond A:SER69>
0

> <HydrogenBond A:PRO73>
0

> <HydrogenBond A:ALA74>
0

> <HydrogenBond A:PHE76>
0

> <HydrogenBond A:ALA77>
0

> <HydrogenBond A:THR78>
0

> <HydrogenBond A:GLU79>
0

> <HydrogenBond A:PHE82>
0

> <HydrogenBond A:ARG83>
0

> <HydrogenBond A:LEU85>
0

> <HydrogenBond A:THR86>
0

> <HydrogenBond A:TRP89>
0

> <HydrogenBond A:THR90>
0

> <HydrogenBond A:ASN93>
0

> <HydrogenBond A:HIS94>
0

> <HydrogenBond A:SER96>
0

> <HydrogenBond A:TRP98>
0

> <HydrogenBond A:ASN144>
0

> <HydrogenBond A:HIS151>
0

> <HydrogenBond A:ILE152>
0

> <HydrogenBond A:ALA154>
0

> <HydrogenBond A:SER155>
0

> <HydrogenBond A:ILE156>
0

> <HydrogenBond A:GLY158>
0

> <HydrogenBond A:TYR159>
0

> <HydrogenBond A:ASN162>
0

> <HydrogenBond A:LYS163>
0

> <HydrogenBond A:SER167>
0

> <HydrogenBond A:ASP168>
0

> <HydrogenBond A:SER169>
0

> <HydrogenBond A:ASN171>
0

> <HydrogenBond A:PHE172>
0

> <HydrogenBond A:THR173>
0

> <HydrogenBond A:ARG174>
0

> <HydrogenBond A:PHE175>
0

> <HydrogenBond A:SER176>
0

> <HydrogenBond A:SER177>
0

> <HydrogenBond A:ILE179>
0

> <HydrogenBond A:VAL180>
0

> <HydrogenBond A:SER183>
0

> <HydrogenBond A:THR184>
0

> <HydrogenBond A:PHE186>
0

> <HydrogenBond A:ILE187>
0

> <HydrogenBond A:PRO190>
0

> <HydrogenBond A:TYR240>
0

> <HydrogenBond A:PHE243>
0

> <HydrogenBond A:SER244>
0

> <HydrogenBond A:PHE247>
0

> <HydrogenBond A:VAL251>
0

> <HydrogenBond A:SER254>
0

> <HydrogenBond A:GLU255>
0

> <HydrogenBond A:ARG256>
0

> <HydrogenBond A:LEU257>
0

> <HydrogenBond A:GLU258>
0

> <HydrogenBond A:GLU259>
0

> <HydrogenBond A:ILE262>
0

> <HydrogenBond A:SER265>
3

> <HydrogenBond A:GLN266>
1

> <HydrogenBond A:MET268>
0

> <HydrogenBond A:GLY269>
0

> <HydrogenBond A:PRO273>
0

> <Other A:SER69>
0

> <Other A:TRP89>
0

> <Other A:TYR159>
0

> <Other A:PHE172>
0

> <Other A:SER176>
0

> <Other A:SER265>
0

$$$$
5323592
  SciTegic09122300493D

 49 50  0  0  0  0            999 V2000
   12.8864    3.3393   -6.9222 O   0  0  0  1  0  0
   11.2673    3.2441   -8.4782 O   0  0  0  1  0  0
   14.0843    5.5398   -7.7573 O   0  0  0  1  0  0
   14.3599    5.6591   -4.6939 O   0  0  0  1  0  0
   10.7383    5.9824   -6.4817 O   0  0  0  1  0  0
   14.4254    1.5353   -5.6066 O   0  0  0  1  0  0
   10.1989    3.2528  -10.7510 O   0  0  0  1  0  0
   11.2135   -0.9978  -10.9203 O   0  5  0  1  0  0
   11.4998   -0.9354   -6.3991 O   0  0  0  1  0  0
   13.0912    5.8490   -6.8040 C   0  0  2  1  0  0
   13.2609    5.1607   -5.4219 C   0  0  1  1  0  0
   11.7159    5.4109   -7.3437 C   0  0  1  1  0  0
   13.2764    3.6326   -5.6060 C   0  0  2  1  0  0
   11.6234    3.8620   -7.2593 C   0  0  2  1  0  0
   14.6106    2.9268   -5.4354 C   0  0  0  1  0  0
   11.2312    1.8654   -8.5322 C   0  0  0  1  0  0
   11.0197    1.2280   -9.8707 C   0  0  0  1  0  0
   10.3119    1.4629  -12.3493 C   0  0  2  1  0  0
   10.6126    1.9597  -10.9503 C   0  0  0  1  0  0
   11.3777    1.1167   -7.4063 C   0  0  0  1  0  0
   11.3824    1.9239  -13.3552 C   0  0  0  1  0  0
   11.3065   -0.2595   -9.9427 C   0  0  0  1  0  0
    8.9053    1.9097  -12.7922 C   0  0  0  1  0  0
   11.5331   -0.3375   -7.4322 C   0  0  0  1  0  0
   11.7429   -0.9625   -8.7301 C   0  0  0  1  0  0
   11.4553    3.4430  -13.5753 C   0  0  0  1  0  0
   13.9833    4.6281   -8.0164 H   0  0
   14.3250    5.4637   -3.7611 H   0  0
   10.7225    6.9292   -6.6030 H   0  0
   14.0713    1.3646   -6.4756 H   0  0
   10.0227    3.3995   -9.8331 H   0  0
   13.1454    6.9289   -6.6907 H   0  0
   12.3507    5.4099   -4.8622 H   0  0
   11.5638    5.7334   -8.3811 H   0  0
   12.5713    3.1798   -4.9129 H   0  0
   10.9092    3.5854   -6.4850 H   0  0
   14.9961    3.1214   -4.4429 H   0  0
   15.3726    3.2652   -6.1277 H   0  0
   10.2952    0.3765  -12.3721 H   0  0
   11.4005    1.5262   -6.4175 H   0  0
   11.1968    1.4313  -14.3080 H   0  0
   12.3559    1.5593  -13.0242 H   0  0
    8.7573    2.9836  -12.6770 H   0  0
    8.1392    1.4032  -12.2050 H   0  0
    8.7324    1.6816  -13.8425 H   0  0
   12.2112   -1.9167   -8.7962 H   0  0
   11.6941    3.9662  -12.6500 H   0  0
   10.5121    3.8380  -13.9518 H   0  0
   12.2294    3.6907  -14.3017 H   0  0
  1 13  1  0
  1 14  1  0
  2 14  1  0
  2 16  1  0
  3 10  1  0
  4 11  1  0
  5 12  1  0
  6 15  1  0
  7 19  1  0
  8 22  1  0
  9 24  2  0
 10 11  1  0
 10 12  1  0
 11 13  1  0
 12 14  1  0
 13 15  1  0
 16 17  1  0
 16 20  2  0
 17 19  2  0
 17 22  1  0
 18 19  1  0
 18 21  1  0
 18 23  1  0
 20 24  1  0
 21 26  1  0
 22 25  2  0
 24 25  1  0
  3 27  1  0
  4 28  1  0
  5 29  1  0
  6 30  1  0
  7 31  1  0
 10 32  1  0
 11 33  1  0
 12 34  1  0
 13 35  1  0
 14 36  1  0
 15 37  1  0
 15 38  1  0
 18 39  1  0
 20 40  1  0
 21 41  1  0
 21 42  1  0
 23 43  1  0
 23 44  1  0
 23 45  1  0
 25 46  1  0
 26 47  1  0
 26 48  1  0
 26 49  1  0
M  CHG  1   8  -1
M  END
> <Name>
5323592

> <Binding Energy>
-19.0617

> <Ligand Energy>
91.5225

> <Protein Energy>
-7801.1566

> <Complex Energy>
-7728.6959

> <Complex Entropy>
-31.4839

> <Protein Entropy>
-31.4717

> <Ligand Entropy>
-19.8911

> <Entropic Energy>
19.8789

> <AbsoluteEnergy>
64.7541

> <ConfNumber>
44

> <Ionization pH>
6.53_DP

> <IonizationIndex>
2

> <MOL_NUMBER>
453

> <NumberOfIonizations>
2

> <NumberOfStereoisomers>
64

> <NumberOfTautomers>
2

> <PUBCHEM_ATOM_DEF_STEREO_COUNT>
0

> <PUBCHEM_ATOM_UDEF_STEREO_COUNT>
6

> <PUBCHEM_BONDANNOTATIONS>
13  15  3
16  17  8
16  20  8
17  22  8
18  23  3
14  2  3
20  24  8
22  25  8
24  25  8
10  3  3
11  4  3
12  5  3

> <PUBCHEM_BOND_DEF_STEREO_COUNT>
0

> <PUBCHEM_BOND_UDEF_STEREO_COUNT>
0

> <PUBCHEM_CACTVS_COMPLEXITY>
473

> <PUBCHEM_CACTVS_HBOND_ACCEPTOR>
9

> <PUBCHEM_CACTVS_HBOND_DONOR>
6

> <PUBCHEM_CACTVS_ROTATABLE_BOND>
6

> <PUBCHEM_CACTVS_SUBSKEYS>
AAADceB4PAAAAAAAAAAAAAAAAAAAAAAAAAA0QAAAAAAAAAABAAAAGgAACAAADRSwmAMyDoAABgCIAqBSAAACCAAkIAAAiAEGCMgdNzaGNRqieWCl4BUPuQfI7OzOIAAACAAIAABAAAAQABAAAAAAAAAAAA==

> <PUBCHEM_CACTVS_TAUTO_COUNT>
-1

> <PUBCHEM_CACTVS_TPSA>
157

> <PUBCHEM_COMPONENT_COUNT>
1

> <PUBCHEM_COMPOUND_CANONICALIZED>
1

> <PUBCHEM_COMPOUND_CID>
5323592

> <PUBCHEM_COORDINATE_TYPE>
1
5
255

> <PUBCHEM_EXACT_MASS>
372.14203234

> <PUBCHEM_HEAVY_ATOM_COUNT>
26

> <PUBCHEM_ISOTOPIC_ATOM_COUNT>
0

> <PUBCHEM_IUPAC_CAS_NAME>
1-[2,4-dihydroxy-6-[[3,4,5-trihydroxy-6-(hydroxymethyl)-2-oxanyl]oxy]phenyl]-2-methyl-1-butanone

> <PUBCHEM_IUPAC_INCHI>
InChI=1S/C17H24O9/c1-3-7(2)13(21)12-9(20)4-8(19)5-10(12)25-17-16(24)15(23)14(22)11(6-18)26-17/h4-5,7,11,14-20,22-24H,3,6H2,1-2H3

> <PUBCHEM_IUPAC_INCHIKEY>
MMJKSUJYDHTZJV-UHFFFAOYSA-N

> <PUBCHEM_IUPAC_NAME>
1-[2,4-dihydroxy-6-[3,4,5-trihydroxy-6-(hydroxymethyl)oxan-2-yl]oxyphenyl]-2-methylbutan-1-one

> <PUBCHEM_IUPAC_NAME_MARKUP>
1-[2,4-dihydroxy-6-[3,4,5-trihydroxy-6-(hydroxymethyl)oxan-2-yl]oxyphenyl]-2-methylbutan-1-one

> <PUBCHEM_IUPAC_OPENEYE_NAME>
1-[2,4-dihydroxy-6-[3,4,5-trihydroxy-6-(hydroxymethyl)tetrahydropyran-2-yl]oxy-phenyl]-2-methyl-butan-1-one

> <PUBCHEM_IUPAC_SYSTEMATIC_NAME>
1-[2-[6-(hydroxymethyl)-3,4,5-tris(oxidanyl)oxan-2-yl]oxy-4,6-bis(oxidanyl)phenyl]-2-methyl-butan-1-one

> <PUBCHEM_IUPAC_TRADITIONAL_NAME>
1-[2,4-dihydroxy-6-(3,4,5-trihydroxy-6-methylol-tetrahydropyran-2-yl)oxy-phenyl]-2-methyl-butan-1-one

> <PUBCHEM_MOLECULAR_FORMULA>
C17H24O9

> <PUBCHEM_MOLECULAR_WEIGHT>
372.4

> <PUBCHEM_MONOISOTOPIC_WEIGHT>
372.14203234

> <PUBCHEM_OPENEYE_CAN_SMILES>
CCC(C)C(=O)C1=C(C=C(C=C1OC2C(C(C(C(O2)CO)O)O)O)O)O

> <PUBCHEM_OPENEYE_ISO_SMILES>
CCC(C)C(=O)C1=C(C=C(C=C1OC2C(C(C(C(O2)CO)O)O)O)O)O

> <PUBCHEM_TOTAL_CHARGE>
0

> <PUBCHEM_XLOGP3_AA>
0.7

> <RelativeEnergy>
17.7749

> <StereoisomerIndex>
58

> <TautomerIndex>
2

> <POSE_NUMBER>
2

> <LibDockScore>
100.2959

> <HotSpots>
14.01,6.27,-5.46,P,57,4
9.21,3.67,-12.86,A,26,23
11.21,4.87,-14.65,A,18,26

> <-In-Situ Starting Energy>
-476.986034

> <-In-Situ Final Energy>
-10.8869539

> <In-Situ Gradient>
0.001935231003

> <Favorable Total>
10

> <Unfavorable Total>
0

> <Charge Total>
0

> <Hydrophobic Total>
5

> <HydrogenBond Total>
5

> <Other Total>
0

> <Favorable A:LYS6>
0

> <Favorable A:ARG55>
0

> <Favorable A:LEU58>
0

> <Favorable A:LEU61>
0

> <Favorable A:ILE62>
0

> <Favorable A:GLY64>
0

> <Favorable A:SER65>
0

> <Favorable A:TRP66>
0

> <Favorable A:SER69>
0

> <Favorable A:VAL70>
0

> <Favorable A:PRO73>
0

> <Favorable A:ALA74>
0

> <Favorable A:PHE76>
1

> <Favorable A:ALA77>
0

> <Favorable A:THR78>
0

> <Favorable A:GLU79>
0

> <Favorable A:PHE82>
0

> <Favorable A:ARG83>
0

> <Favorable A:LEU85>
0

> <Favorable A:THR86>
0

> <Favorable A:TRP89>
6

> <Favorable A:THR90>
0

> <Favorable A:ASN93>
0

> <Favorable A:HIS94>
0

> <Favorable A:SER96>
0

> <Favorable A:VAL97>
0

> <Favorable A:TRP98>
0

> <Favorable A:PHE140>
0

> <Favorable A:LEU141>
0

> <Favorable A:ASN144>
0

> <Favorable A:ILE148>
0

> <Favorable A:ILE150>
0

> <Favorable A:HIS151>
0

> <Favorable A:ILE152>
0

> <Favorable A:ALA154>
0

> <Favorable A:SER155>
0

> <Favorable A:ILE156>
0

> <Favorable A:GLY158>
0

> <Favorable A:TYR159>
0

> <Favorable A:ARG160>
0

> <Favorable A:ARG161>
0

> <Favorable A:ASN162>
0

> <Favorable A:LYS163>
0

> <Favorable A:SER167>
0

> <Favorable A:ASP168>
0

> <Favorable A:SER169>
0

> <Favorable A:ASN171>
0

> <Favorable A:PHE172>
0

> <Favorable A:THR173>
0

> <Favorable A:ARG174>
0

> <Favorable A:PHE175>
0

> <Favorable A:SER176>
0

> <Favorable A:SER177>
0

> <Favorable A:LEU178>
0

> <Favorable A:ILE179>
0

> <Favorable A:VAL180>
1

> <Favorable A:LEU181>
0

> <Favorable A:SER183>
1

> <Favorable A:THR184>
0

> <Favorable A:PHE186>
0

> <Favorable A:ILE187>
0

> <Favorable A:PHE188>
0

> <Favorable A:ILE189>
0

> <Favorable A:PRO190>
0

> <Favorable A:PHE191>
0

> <Favorable A:TYR240>
0

> <Favorable A:PHE243>
0

> <Favorable A:SER244>
0

> <Favorable A:PHE247>
0

> <Favorable A:PHE248>
0

> <Favorable A:VAL251>
0

> <Favorable A:TRP252>
0

> <Favorable A:SER254>
0

> <Favorable A:GLU255>
0

> <Favorable A:ARG256>
0

> <Favorable A:LEU257>
0

> <Favorable A:GLU258>
0

> <Favorable A:GLU259>
0

> <Favorable A:LEU261>
0

> <Favorable A:ILE262>
0

> <Favorable A:ILE263>
0

> <Favorable A:SER265>
0

> <Favorable A:GLN266>
1

> <Favorable A:MET268>
0

> <Favorable A:GLY269>
0

> <Favorable A:TYR272>
0

> <Favorable A:PRO273>
0

> <Unfavorable A:ARG55>
0

> <Unfavorable A:PRO73>
0

> <Unfavorable A:PHE76>
0

> <Unfavorable A:GLU79>
0

> <Unfavorable A:ARG83>
0

> <Unfavorable A:THR86>
0

> <Unfavorable A:TRP89>
0

> <Unfavorable A:THR90>
0

> <Unfavorable A:ASN93>
0

> <Unfavorable A:TRP98>
0

> <Unfavorable A:ASN144>
0

> <Unfavorable A:SER155>
0

> <Unfavorable A:GLY158>
0

> <Unfavorable A:TYR159>
0

> <Unfavorable A:ASN162>
0

> <Unfavorable A:ASP168>
0

> <Unfavorable A:ASN171>
0

> <Unfavorable A:THR173>
0

> <Unfavorable A:ARG174>
0

> <Unfavorable A:SER183>
0

> <Unfavorable A:THR184>
0

> <Unfavorable A:PHE186>
0

> <Unfavorable A:SER244>
0

> <Unfavorable A:SER254>
0

> <Unfavorable A:GLU255>
0

> <Unfavorable A:SER265>
0

> <Unfavorable A:GLN266>
0

> <Unfavorable A:GLY269>
0

> <Charge A:ARG55>
0

> <Charge A:PHE76>
0

> <Charge A:GLU79>
0

> <Charge A:PHE82>
0

> <Charge A:ARG83>
0

> <Charge A:TRP89>
0

> <Charge A:HIS94>
0

> <Charge A:TRP98>
0

> <Charge A:TYR159>
0

> <Charge A:ARG161>
0

> <Charge A:LYS163>
0

> <Charge A:ASP168>
0

> <Charge A:PHE172>
0

> <Charge A:ARG174>
0

> <Charge A:PHE175>
0

> <Charge A:PHE188>
0

> <Charge A:PHE247>
0

> <Charge A:PHE248>
0

> <Hydrophobic A:LEU58>
0

> <Hydrophobic A:LEU61>
0

> <Hydrophobic A:ILE62>
0

> <Hydrophobic A:TRP66>
0

> <Hydrophobic A:VAL70>
0

> <Hydrophobic A:PRO73>
0

> <Hydrophobic A:ALA74>
0

> <Hydrophobic A:PHE76>
1

> <Hydrophobic A:ALA77>
0

> <Hydrophobic A:THR78>
0

> <Hydrophobic A:PHE82>
0

> <Hydrophobic A:ARG83>
0

> <Hydrophobic A:LEU85>
0

> <Hydrophobic A:TRP89>
4

> <Hydrophobic A:THR90>
0

> <Hydrophobic A:ASN93>
0

> <Hydrophobic A:HIS94>
0

> <Hydrophobic A:VAL97>
0

> <Hydrophobic A:TRP98>
0

> <Hydrophobic A:PHE140>
0

> <Hydrophobic A:LEU141>
0

> <Hydrophobic A:ILE148>
0

> <Hydrophobic A:ILE150>
0

> <Hydrophobic A:HIS151>
0

> <Hydrophobic A:ILE152>
0

> <Hydrophobic A:ALA154>
0

> <Hydrophobic A:SER155>
0

> <Hydrophobic A:ILE156>
0

> <Hydrophobic A:GLY158>
0

> <Hydrophobic A:TYR159>
0

> <Hydrophobic A:ARG160>
0

> <Hydrophobic A:ARG161>
0

> <Hydrophobic A:ASP168>
0

> <Hydrophobic A:ASN171>
0

> <Hydrophobic A:PHE172>
0

> <Hydrophobic A:ARG174>
0

> <Hydrophobic A:PHE175>
0

> <Hydrophobic A:LEU178>
0

> <Hydrophobic A:ILE179>
0

> <Hydrophobic A:VAL180>
0

> <Hydrophobic A:LEU181>
0

> <Hydrophobic A:PHE186>
0

> <Hydrophobic A:ILE187>
0

> <Hydrophobic A:PHE188>
0

> <Hydrophobic A:ILE189>
0

> <Hydrophobic A:PRO190>
0

> <Hydrophobic A:PHE191>
0

> <Hydrophobic A:TYR240>
0

> <Hydrophobic A:PHE243>
0

> <Hydrophobic A:PHE247>
0

> <Hydrophobic A:PHE248>
0

> <Hydrophobic A:VAL251>
0

> <Hydrophobic A:TRP252>
0

> <Hydrophobic A:SER254>
0

> <Hydrophobic A:LEU261>
0

> <Hydrophobic A:ILE262>
0

> <Hydrophobic A:ILE263>
0

> <Hydrophobic A:TYR272>
0

> <Hydrophobic A:PRO273>
0

> <HydrogenBond A:LYS6>
0

> <HydrogenBond A:ARG55>
0

> <HydrogenBond A:GLY64>
0

> <HydrogenBond A:SER65>
0

> <HydrogenBond A:TRP66>
0

> <HydrogenBond A:SER69>
0

> <HydrogenBond A:PRO73>
0

> <HydrogenBond A:ALA74>
0

> <HydrogenBond A:PHE76>
0

> <HydrogenBond A:ALA77>
0

> <HydrogenBond A:THR78>
0

> <HydrogenBond A:GLU79>
0

> <HydrogenBond A:PHE82>
0

> <HydrogenBond A:ARG83>
0

> <HydrogenBond A:LEU85>
0

> <HydrogenBond A:THR86>
0

> <HydrogenBond A:TRP89>
2

> <HydrogenBond A:THR90>
0

> <HydrogenBond A:ASN93>
0

> <HydrogenBond A:HIS94>
0

> <HydrogenBond A:SER96>
0

> <HydrogenBond A:TRP98>
0

> <HydrogenBond A:ASN144>
0

> <HydrogenBond A:HIS151>
0

> <HydrogenBond A:ILE152>
0

> <HydrogenBond A:ALA154>
0

> <HydrogenBond A:SER155>
0

> <HydrogenBond A:ILE156>
0

> <HydrogenBond A:GLY158>
0

> <HydrogenBond A:TYR159>
0

> <HydrogenBond A:ASN162>
0

> <HydrogenBond A:LYS163>
0

> <HydrogenBond A:SER167>
0

> <HydrogenBond A:ASP168>
0

> <HydrogenBond A:SER169>
0

> <HydrogenBond A:ASN171>
0

> <HydrogenBond A:PHE172>
0

> <HydrogenBond A:THR173>
0

> <HydrogenBond A:ARG174>
0

> <HydrogenBond A:PHE175>
0

> <HydrogenBond A:SER176>
0

> <HydrogenBond A:SER177>
0

> <HydrogenBond A:ILE179>
0

> <HydrogenBond A:VAL180>
1

> <HydrogenBond A:SER183>
1

> <HydrogenBond A:THR184>
0

> <HydrogenBond A:PHE186>
0

> <HydrogenBond A:ILE187>
0

> <HydrogenBond A:PRO190>
0

> <HydrogenBond A:TYR240>
0

> <HydrogenBond A:PHE243>
0

> <HydrogenBond A:SER244>
0

> <HydrogenBond A:PHE247>
0

> <HydrogenBond A:VAL251>
0

> <HydrogenBond A:SER254>
0

> <HydrogenBond A:GLU255>
0

> <HydrogenBond A:ARG256>
0

> <HydrogenBond A:LEU257>
0

> <HydrogenBond A:GLU258>
0

> <HydrogenBond A:GLU259>
0

> <HydrogenBond A:ILE262>
0

> <HydrogenBond A:SER265>
0

> <HydrogenBond A:GLN266>
1

> <HydrogenBond A:MET268>
0

> <HydrogenBond A:GLY269>
0

> <HydrogenBond A:PRO273>
0

> <Other A:SER69>
0

> <Other A:TRP89>
0

> <Other A:TYR159>
0

> <Other A:PHE172>
0

> <Other A:SER176>
0

> <Other A:SER265>
0

$$$$
6443019
  SciTegic09122300493D

 33 34  0  0  0  0            999 V2000
    5.3874    9.9967    0.7413 O   0  0  0  1  0  0
    9.7109    9.1002   -6.2981 O   0  0  0  1  0  0
   10.3061    4.4511   -4.6224 O   0  5  0  1  0  0
   12.2422    4.9471   -3.7859 O   0  0  0  1  0  0
    9.9248    6.8649   -5.8801 N   0  0  0  1  0  0
   11.0437    6.5129   -6.5800 C   0  0  0  1  0  0
   11.8429    5.5251   -6.0056 C   0  0  0  1  0  0
   11.3981    7.0658   -7.8091 C   0  0  0  1  0  0
    7.0847    9.4106   -2.9691 C   0  0  0  1  0  0
   13.0188    5.1335   -6.6341 C   0  0  0  1  0  0
   12.5589    6.6492   -8.4460 C   0  0  0  1  0  0
   13.3736    5.6923   -7.8556 C   0  0  0  1  0  0
    7.9820    9.2626   -4.1125 C   0  0  0  1  0  0
    9.3737    8.0696   -5.7221 C   0  0  0  1  0  0
    6.6570    8.3211   -2.2265 C   0  0  0  1  0  0
    6.8111   10.6858   -2.5041 C   0  0  0  1  0  0
    8.3032    8.1023   -4.7056 C   0  0  0  1  0  0
    6.0331    8.5130   -1.0054 C   0  0  0  1  0  0
    6.3392   10.8761   -1.2217 C   0  0  0  1  0  0
    5.9344    9.7870   -0.4871 C   0  0  0  1  0  0
   11.4466    4.9229   -4.7233 C   0  0  0  1  0  0
    4.4651    9.7770    0.7249 H   0  0
    9.5864    6.1768   -5.2375 H   0  0
   10.7889    7.8260   -8.2710 H   0  0
   13.6512    4.3918   -6.1670 H   0  0
   12.8386    7.0821   -9.3943 H   0  0
   14.2852    5.3858   -8.3459 H   0  0
    8.4415   10.1560   -4.4646 H   0  0
    6.8910    7.3095   -2.5052 H   0  0
    6.9896   11.5348   -3.1242 H   0  0
    7.8354    7.1747   -4.4442 H   0  0
    5.7142    7.6608   -0.4287 H   0  0
    6.2743   11.8614   -0.7894 H   0  0
  1 20  1  0
  2 14  2  0
  3 21  1  0
  4 21  2  0
  5  6  1  0
  5 14  1  0
  6  7  2  0
  6  8  1  0
  7 10  1  0
  7 21  1  0
  8 11  2  0
  9 13  1  0
  9 15  2  0
  9 16  1  0
 10 12  2  0
 11 12  1  0
 13 17  2  0
 14 17  1  0
 15 18  1  0
 16 19  2  0
 18 20  2  0
 19 20  1  0
  1 22  1  0
  5 23  1  0
  8 24  1  0
 10 25  1  0
 11 26  1  0
 12 27  1  0
 13 28  1  0
 15 29  1  0
 16 30  1  0
 17 31  1  0
 18 32  1  0
 19 33  1  0
M  CHG  1   3  -1
M  END
> <Name>
6443019

> <Binding Energy>
-62.9167

> <Ligand Energy>
-8.1528

> <Protein Energy>
-7801.1566

> <Complex Energy>
-7872.2261

> <Complex Entropy>
-31.4804

> <Protein Entropy>
-31.4717

> <Ligand Entropy>
-19.3981

> <Entropic Energy>
19.3894

> <AbsoluteEnergy>
52.7896

> <ConfNumber>
3

> <Ionization pH>
7.5

> <IonizationIndex>
1

> <MOL_NUMBER>
460

> <NumberOfIonizations>
1

> <NumberOfStereoisomers>
1

> <NumberOfTautomers>
3

> <PUBCHEM_ATOM_DEF_STEREO_COUNT>
0

> <PUBCHEM_ATOM_UDEF_STEREO_COUNT>
0

> <PUBCHEM_BOND_DEF_STEREO_COUNT>
1

> <PUBCHEM_BOND_UDEF_STEREO_COUNT>
0

> <PUBCHEM_CACTVS_TAUTO_COUNT>
6

> <PUBCHEM_COMPONENT_COUNT>
1

> <PUBCHEM_COMPOUND_CID>
6443019

> <PUBCHEM_CONFORMER_DIVERSEORDER>
1
8
6
4
7
5
3
2

> <PUBCHEM_CONFORMER_ID>
0062500B00000001

> <PUBCHEM_CONFORMER_RMSD>
0.8

> <PUBCHEM_COORDINATE_TYPE>
2
5
10

> <PUBCHEM_EFFECTIVE_ROTOR_COUNT>
5

> <PUBCHEM_FEATURE_SELFOVERLAP>
40.654

> <PUBCHEM_HEAVY_ATOM_COUNT>
21

> <PUBCHEM_ISOTOPIC_ATOM_COUNT>
0

> <PUBCHEM_MMFF94_ENERGY>
68.2042

> <PUBCHEM_MMFF94_PARTIAL_CHARGES>
34
1 -0.53
10 -0.15
11 -0.15
12 -0.15
13 -0.18
14 0.62
15 -0.15
16 -0.15
17 -0.14
18 -0.15
19 -0.15
2 -0.57
20 0.08
21 0.63
22 0.15
23 0.37
24 0.15
25 0.15
26 0.15
27 0.15
28 0.15
29 0.15
3 -0.65
30 0.15
31 0.15
32 0.15
33 0.45
34 0.5
4 -0.57
5 -0.55
6 0.12
7 0.09
8 -0.15
9 0.03

> <PUBCHEM_PHARMACOPHORE_FEATURES>
8
1 1 donor
1 2 acceptor
1 3 acceptor
1 4 acceptor
1 5 donor
3 3 4 21 anion
6 6 7 8 10 11 12 rings
6 9 15 16 18 19 20 rings

> <PUBCHEM_SHAPE_FINGERPRINT>
10411042 1 18122906701853620207
10595046 47 18334860571197563460
11045515 52 18113052727472603228
11045977 3 17988636419694374216
11315181 36 17418092122317086937
11405975 8 18343301500220281169
11524674 6 17346313791289670991
11796584 16 18342177743902753134
12107183 9 17616249187387534688
12236239 1 18186804681691821020
12516196 113 18060134340912949480
12616971 3 17458350749247652188
12788726 201 17702381741441747113
12916748 109 9007057989156619936
13167823 11 18408602591215889898
13288520 33 18411418415025676245
14251764 18 18343304769312527945
14341114 176 18411984675845228736
14420673 8 18411421682868177431
14461889 52 18268702974345853704
15042514 8 18337112393229818723
15183329 4 18335416846391758298
15196674 1 18410011065600605930
15250474 111 18262222379027839898
15348495 7 17988071296803798056
15537594 2 17895191078196652362
17492 89 18120655996638910355
17834072 33 18335140903923885356
17844677 252 18411987978854589848
17857418 61 18410571773765585210
19489759 90 17275385374482376065
20681677 155 18334574629407184609
21267235 1 18336269020181279579
220451 1 18260835877922000496
22950370 63 18408604781617731300
23035841 295 18409167697021367368
23402539 116 18408039611166140100
23536379 177 18408323259412302232
23559900 14 18270391806203880513
26918003 58 18131632274805027208
3004659 81 18334012775113437632
335352 9 18411134737042024917
338550 245 18408889555424958710
4073 2 18113904900881634258
4214541 1 18410855460244524641
5104073 3 18343581867327311088
559249 180 18410290290035416063
59755656 215 18271248205956105150
59755656 520 16877946031260069787
6327066 14 17827068516839266957
67856867 119 18263085564675723116
7226269 152 17846219904559878289
7495541 125 18059854004529781792
999808 66 17895488002845836875

> <PUBCHEM_SHAPE_MULTIPOLES>
403.71
16.95
2.39
0.65
15.4
1.1
0.01
2.72
0.26
-2.83
0
0.05
0.04
-0.42

> <PUBCHEM_SHAPE_SELFOVERLAP>
869.874

> <PUBCHEM_SHAPE_VOLUME>
220.2

> <RelativeEnergy>
1.22181

> <StereoisomerIndex>
1

> <TautomerIndex>
1

> <POSE_NUMBER>
1

> <LibDockScore>
106.6303

> <HotSpots>
5.01,10.27,-0.85,P,81,1
13.41,6.07,-3.65,P,65,3
8.41,8.07,-4.86,A,38,13

> <-In-Situ Starting Energy>
-304.229332

> <-In-Situ Final Energy>
37.6226971

> <In-Situ Gradient>
0.0008100957958

> <Favorable Total>
9

> <Unfavorable Total>
0

> <Charge Total>
0

> <Hydrophobic Total>
6

> <HydrogenBond Total>
3

> <Other Total>
0

> <Favorable A:LYS6>
0

> <Favorable A:ARG55>
0

> <Favorable A:LEU58>
0

> <Favorable A:LEU61>
0

> <Favorable A:ILE62>
0

> <Favorable A:GLY64>
0

> <Favorable A:SER65>
0

> <Favorable A:TRP66>
0

> <Favorable A:SER69>
0

> <Favorable A:VAL70>
0

> <Favorable A:PRO73>
0

> <Favorable A:ALA74>
0

> <Favorable A:PHE76>
0

> <Favorable A:ALA77>
0

> <Favorable A:THR78>
0

> <Favorable A:GLU79>
0

> <Favorable A:PHE82>
0

> <Favorable A:ARG83>
0

> <Favorable A:LEU85>
0

> <Favorable A:THR86>
0

> <Favorable A:TRP89>
2

> <Favorable A:THR90>
1

> <Favorable A:ASN93>
1

> <Favorable A:HIS94>
0

> <Favorable A:SER96>
0

> <Favorable A:VAL97>
1

> <Favorable A:TRP98>
0

> <Favorable A:PHE140>
0

> <Favorable A:LEU141>
0

> <Favorable A:ASN144>
0

> <Favorable A:ILE148>
0

> <Favorable A:ILE150>
0

> <Favorable A:HIS151>
0

> <Favorable A:ILE152>
0

> <Favorable A:ALA154>
0

> <Favorable A:SER155>
0

> <Favorable A:ILE156>
0

> <Favorable A:GLY158>
0

> <Favorable A:TYR159>
0

> <Favorable A:ARG160>
0

> <Favorable A:ARG161>
0

> <Favorable A:ASN162>
0

> <Favorable A:LYS163>
0

> <Favorable A:SER167>
0

> <Favorable A:ASP168>
0

> <Favorable A:SER169>
0

> <Favorable A:ASN171>
0

> <Favorable A:PHE172>
0

> <Favorable A:THR173>
0

> <Favorable A:ARG174>
0

> <Favorable A:PHE175>
0

> <Favorable A:SER176>
0

> <Favorable A:SER177>
0

> <Favorable A:LEU178>
0

> <Favorable A:ILE179>
1

> <Favorable A:VAL180>
1

> <Favorable A:LEU181>
0

> <Favorable A:SER183>
1

> <Favorable A:THR184>
0

> <Favorable A:PHE186>
0

> <Favorable A:ILE187>
1

> <Favorable A:PHE188>
0

> <Favorable A:ILE189>
0

> <Favorable A:PRO190>
0

> <Favorable A:PHE191>
0

> <Favorable A:TYR240>
0

> <Favorable A:PHE243>
0

> <Favorable A:SER244>
0

> <Favorable A:PHE247>
0

> <Favorable A:PHE248>
0

> <Favorable A:VAL251>
0

> <Favorable A:TRP252>
0

> <Favorable A:SER254>
0

> <Favorable A:GLU255>
0

> <Favorable A:ARG256>
0

> <Favorable A:LEU257>
0

> <Favorable A:GLU258>
0

> <Favorable A:GLU259>
0

> <Favorable A:LEU261>
0

> <Favorable A:ILE262>
0

> <Favorable A:ILE263>
0

> <Favorable A:SER265>
0

> <Favorable A:GLN266>
0

> <Favorable A:MET268>
0

> <Favorable A:GLY269>
0

> <Favorable A:TYR272>
0

> <Favorable A:PRO273>
0

> <Unfavorable A:ARG55>
0

> <Unfavorable A:PRO73>
0

> <Unfavorable A:PHE76>
0

> <Unfavorable A:GLU79>
0

> <Unfavorable A:ARG83>
0

> <Unfavorable A:THR86>
0

> <Unfavorable A:TRP89>
0

> <Unfavorable A:THR90>
0

> <Unfavorable A:ASN93>
0

> <Unfavorable A:TRP98>
0

> <Unfavorable A:ASN144>
0

> <Unfavorable A:SER155>
0

> <Unfavorable A:GLY158>
0

> <Unfavorable A:TYR159>
0

> <Unfavorable A:ASN162>
0

> <Unfavorable A:ASP168>
0

> <Unfavorable A:ASN171>
0

> <Unfavorable A:THR173>
0

> <Unfavorable A:ARG174>
0

> <Unfavorable A:SER183>
0

> <Unfavorable A:THR184>
0

> <Unfavorable A:PHE186>
0

> <Unfavorable A:SER244>
0

> <Unfavorable A:SER254>
0

> <Unfavorable A:GLU255>
0

> <Unfavorable A:SER265>
0

> <Unfavorable A:GLN266>
0

> <Unfavorable A:GLY269>
0

> <Charge A:ARG55>
0

> <Charge A:PHE76>
0

> <Charge A:GLU79>
0

> <Charge A:PHE82>
0

> <Charge A:ARG83>
0

> <Charge A:TRP89>
0

> <Charge A:HIS94>
0

> <Charge A:TRP98>
0

> <Charge A:TYR159>
0

> <Charge A:ARG161>
0

> <Charge A:LYS163>
0

> <Charge A:ASP168>
0

> <Charge A:PHE172>
0

> <Charge A:ARG174>
0

> <Charge A:PHE175>
0

> <Charge A:PHE188>
0

> <Charge A:PHE247>
0

> <Charge A:PHE248>
0

> <Hydrophobic A:LEU58>
0

> <Hydrophobic A:LEU61>
0

> <Hydrophobic A:ILE62>
0

> <Hydrophobic A:TRP66>
0

> <Hydrophobic A:VAL70>
0

> <Hydrophobic A:PRO73>
0

> <Hydrophobic A:ALA74>
0

> <Hydrophobic A:PHE76>
0

> <Hydrophobic A:ALA77>
0

> <Hydrophobic A:THR78>
0

> <Hydrophobic A:PHE82>
0

> <Hydrophobic A:ARG83>
0

> <Hydrophobic A:LEU85>
0

> <Hydrophobic A:TRP89>
1

> <Hydrophobic A:THR90>
0

> <Hydrophobic A:ASN93>
1

> <Hydrophobic A:HIS94>
0

> <Hydrophobic A:VAL97>
1

> <Hydrophobic A:TRP98>
0

> <Hydrophobic A:PHE140>
0

> <Hydrophobic A:LEU141>
0

> <Hydrophobic A:ILE148>
0

> <Hydrophobic A:ILE150>
0

> <Hydrophobic A:HIS151>
0

> <Hydrophobic A:ILE152>
0

> <Hydrophobic A:ALA154>
0

> <Hydrophobic A:SER155>
0

> <Hydrophobic A:ILE156>
0

> <Hydrophobic A:GLY158>
0

> <Hydrophobic A:TYR159>
0

> <Hydrophobic A:ARG160>
0

> <Hydrophobic A:ARG161>
0

> <Hydrophobic A:ASP168>
0

> <Hydrophobic A:ASN171>
0

> <Hydrophobic A:PHE172>
0

> <Hydrophobic A:ARG174>
0

> <Hydrophobic A:PHE175>
0

> <Hydrophobic A:LEU178>
0

> <Hydrophobic A:ILE179>
1

> <Hydrophobic A:VAL180>
1

> <Hydrophobic A:LEU181>
0

> <Hydrophobic A:PHE186>
0

> <Hydrophobic A:ILE187>
1

> <Hydrophobic A:PHE188>
0

> <Hydrophobic A:ILE189>
0

> <Hydrophobic A:PRO190>
0

> <Hydrophobic A:PHE191>
0

> <Hydrophobic A:TYR240>
0

> <Hydrophobic A:PHE243>
0

> <Hydrophobic A:PHE247>
0

> <Hydrophobic A:PHE248>
0

> <Hydrophobic A:VAL251>
0

> <Hydrophobic A:TRP252>
0

> <Hydrophobic A:SER254>
0

> <Hydrophobic A:LEU261>
0

> <Hydrophobic A:ILE262>
0

> <Hydrophobic A:ILE263>
0

> <Hydrophobic A:TYR272>
0

> <Hydrophobic A:PRO273>
0

> <HydrogenBond A:LYS6>
0

> <HydrogenBond A:ARG55>
0

> <HydrogenBond A:GLY64>
0

> <HydrogenBond A:SER65>
0

> <HydrogenBond A:TRP66>
0

> <HydrogenBond A:SER69>
0

> <HydrogenBond A:PRO73>
0

> <HydrogenBond A:ALA74>
0

> <HydrogenBond A:PHE76>
0

> <HydrogenBond A:ALA77>
0

> <HydrogenBond A:THR78>
0

> <HydrogenBond A:GLU79>
0

> <HydrogenBond A:PHE82>
0

> <HydrogenBond A:ARG83>
0

> <HydrogenBond A:LEU85>
0

> <HydrogenBond A:THR86>
0

> <HydrogenBond A:TRP89>
1

> <HydrogenBond A:THR90>
1

> <HydrogenBond A:ASN93>
0

> <HydrogenBond A:HIS94>
0

> <HydrogenBond A:SER96>
0

> <HydrogenBond A:TRP98>
0

> <HydrogenBond A:ASN144>
0

> <HydrogenBond A:HIS151>
0

> <HydrogenBond A:ILE152>
0

> <HydrogenBond A:ALA154>
0

> <HydrogenBond A:SER155>
0

> <HydrogenBond A:ILE156>
0

> <HydrogenBond A:GLY158>
0

> <HydrogenBond A:TYR159>
0

> <HydrogenBond A:ASN162>
0

> <HydrogenBond A:LYS163>
0

> <HydrogenBond A:SER167>
0

> <HydrogenBond A:ASP168>
0

> <HydrogenBond A:SER169>
0

> <HydrogenBond A:ASN171>
0

> <HydrogenBond A:PHE172>
0

> <HydrogenBond A:THR173>
0

> <HydrogenBond A:ARG174>
0

> <HydrogenBond A:PHE175>
0

> <HydrogenBond A:SER176>
0

> <HydrogenBond A:SER177>
0

> <HydrogenBond A:ILE179>
0

> <HydrogenBond A:VAL180>
0

> <HydrogenBond A:SER183>
1

> <HydrogenBond A:THR184>
0

> <HydrogenBond A:PHE186>
0

> <HydrogenBond A:ILE187>
0

> <HydrogenBond A:PRO190>
0

> <HydrogenBond A:TYR240>
0

> <HydrogenBond A:PHE243>
0

> <HydrogenBond A:SER244>
0

> <HydrogenBond A:PHE247>
0

> <HydrogenBond A:VAL251>
0

> <HydrogenBond A:SER254>
0

> <HydrogenBond A:GLU255>
0

> <HydrogenBond A:ARG256>
0

> <HydrogenBond A:LEU257>
0

> <HydrogenBond A:GLU258>
0

> <HydrogenBond A:GLU259>
0

> <HydrogenBond A:ILE262>
0

> <HydrogenBond A:SER265>
0

> <HydrogenBond A:GLN266>
0

> <HydrogenBond A:MET268>
0

> <HydrogenBond A:GLY269>
0

> <HydrogenBond A:PRO273>
0

> <Other A:SER69>
0

> <Other A:TRP89>
0

> <Other A:TYR159>
0

> <Other A:PHE172>
0

> <Other A:SER176>
0

> <Other A:SER265>
0

$$$$
6992261
  SciTegic09122300493D

 30 31  0  0  0  0            999 V2000
    7.2903    3.9946    0.3184 O   0  0  0  1  0  0
    6.8445   -0.9211    2.1964 O   0  0  0  1  0  0
    6.5424    1.8836   -0.0127 N   0  0  0  1  0  0
    7.1166    1.2970    2.5800 N   0  0  0  1  0  0
    6.0486    0.6243    0.5190 C   0  0  1  1  0  0
    6.2626   -0.3950   -0.6095 C   0  0  0  1  0  0
    6.7790    1.8500   -1.4465 C   0  0  0  1  0  0
    6.6657    2.6621    2.2879 C   0  0  2  1  0  0
    6.9922    0.3636   -1.7316 C   0  0  0  1  0  0
    6.8688    2.9398    0.7644 C   0  0  0  1  0  0
    6.6839    0.2400    1.8655 C   0  0  0  1  0  0
    7.3510    3.7079    3.2183 C   0  0  0  1  0  0
    8.8880    3.5559    3.2169 C   0  0  0  1  0  0
    6.6716    5.0371    3.0633 C   0  0  0  1  0  0
    7.8609    1.0461    3.1876 H   0  0
    4.9896    0.7611    0.6951 H   0  0
    6.8194   -1.2786   -0.2928 H   0  0
    5.2957   -0.7447   -0.9698 H   0  0
    7.6384    2.4566   -1.7389 H   0  0
    5.8937    2.2211   -1.9590 H   0  0
    5.5914    2.6675    2.4776 H   0  0
    6.6495    0.0735   -2.7255 H   0  0
    8.0586    0.1454   -1.6745 H   0  0
    7.0771    3.7682    4.2713 H   0  0
    9.3078    3.5488    2.2221 H   0  0
    9.2586    2.6024    3.5639 H   0  0
    9.3597    4.3004    3.8546 H   0  0
    5.7151    4.9350    3.5301 H   0  0
    6.3872    5.2418    2.0463 H   0  0
    7.1927    5.8716    3.5365 H   0  0
  1 10  2  0
  2 11  2  0
  3  5  1  0
  3  7  1  0
  3 10  1  0
  4  8  1  0
  4 11  1  0
  5  6  1  0
  5 11  1  0
  6  9  1  0
  7  9  1  0
  8 10  1  0
  8 12  1  0
 12 13  1  0
 12 14  1  0
  4 15  1  0
  5 16  1  0
  6 17  1  0
  6 18  1  0
  7 19  1  0
  7 20  1  0
  8 21  1  0
  9 22  1  0
  9 23  1  0
 12 24  1  0
 13 25  1  0
 13 26  1  0
 13 27  1  0
 14 28  1  0
 14 29  1  0
 14 30  1  0
M  END
> <Name>
6992261

> <Binding Energy>
-9.9381

> <Ligand Energy>
32.4358

> <Protein Energy>
-7801.1566

> <Complex Energy>
-7778.6589

> <Complex Entropy>
-31.4769

> <Protein Entropy>
-31.4717

> <Ligand Entropy>
-18.0959

> <Entropic Energy>
18.0907

> <AbsoluteEnergy>
19.4731

> <ConfNumber>
3

> <IonizationIndex>
1

> <MOL_NUMBER>
465

> <NumberOfIonizations>
1

> <NumberOfStereoisomers>
1

> <NumberOfTautomers>
1

> <PUBCHEM_ATOM_DEF_STEREO_COUNT>
2

> <PUBCHEM_ATOM_UDEF_STEREO_COUNT>
0

> <PUBCHEM_BOND_DEF_STEREO_COUNT>
0

> <PUBCHEM_BOND_UDEF_STEREO_COUNT>
0

> <PUBCHEM_CACTVS_TAUTO_COUNT>
2

> <PUBCHEM_COMPONENT_COUNT>
1

> <PUBCHEM_COMPOUND_CID>
6992261

> <PUBCHEM_CONFORMER_DIVERSEORDER>
1
2

> <PUBCHEM_CONFORMER_ID>
006AB18500000001

> <PUBCHEM_CONFORMER_RMSD>
0.6

> <PUBCHEM_COORDINATE_TYPE>
2
5
10

> <PUBCHEM_EFFECTIVE_ROTOR_COUNT>
2

> <PUBCHEM_FEATURE_SELFOVERLAP>
30.544

> <PUBCHEM_HEAVY_ATOM_COUNT>
14

> <PUBCHEM_ISOTOPIC_ATOM_COUNT>
0

> <PUBCHEM_MMFF94_ENERGY>
42.5002

> <PUBCHEM_MMFF94_PARTIAL_CHARGES>
10
1 -0.57
10 0.57
11 0.57
2 -0.57
24 0.37
3 -0.66
4 -0.73
5 0.36
7 0.3
8 0.36

> <PUBCHEM_PHARMACOPHORE_FEATURES>
6
1 1 acceptor
1 2 acceptor
1 4 donor
3 12 13 14 hydrophobe
5 3 5 6 7 9 rings
6 3 4 5 8 10 11 rings

> <PUBCHEM_SHAPE_FINGERPRINT>
10130415 120 18335137622199333393
108231 29 18268435804976628177
10857977 72 18342450460992572523
10967382 1 18411139181399298023
11132069 177 18412258428412238250
12032990 46 18340777025764932079
12382932 28 18412548678355313859
13380535 21 17984153555947438864
14325111 11 18407760339391451878
14614273 12 18189049807052443125
15375462 189 18187650240445625811
15775835 57 18040719173195017332
16945 1 18339643339113796349
17846911 113 18412255125577080353
193761 8 17907300953167387015
20201158 50 18408884036164895751
20510252 161 18343304755974056096
20525323 117 18341045212260242509
20588541 1 18408326596738898271
20645476 183 17749965478013839550
21501502 16 18124598582831361578
22802520 49 17914636976605527598
2334 1 18123467438911868837
23402539 116 18342451569553051726
23402655 69 18340473467031685045
23419403 2 15758726916023774087
23463225 33 18261106344707705394
23552423 10 18119251657817258878
23559900 14 18342460340282516796
2748010 2 18195802084141893069
3312278 4 18335144210478770227
353137 74 18336548218102883549
528886 8 18412543227793960187
537710 114 18335707181938865093
53812653 166 18342174458046816161
53812653 8 18409735045279730084
7364860 26 17838901786534387369
81228 2 18269284469198198113

> <PUBCHEM_SHAPE_MULTIPOLES>
266.41
5.15
2.1
0.82
1.22
0.48
0.11
-0.38
-0.13
-0.59
0.3
0.45
-0.01
-0.29

> <PUBCHEM_SHAPE_SELFOVERLAP>
553.139

> <PUBCHEM_SHAPE_VOLUME>
152.5

> <RelativeEnergy>
2.55408

> <StereoisomerIndex>
1

> <TautomerIndex>
1

> <POSE_NUMBER>
1

> <LibDockScore>
71.1674

> <HotSpots>
7.61,2.87,-1.05,A,58,7
8.81,3.67,3.75,A,88,13
7.01,5.67,3.94,A,89,14

> <-In-Situ Starting Energy>
-432.374086

> <-In-Situ Final Energy>
-32.5876593

> <In-Situ Gradient>
0.0008990112131

> <Favorable Total>
8

> <Unfavorable Total>
0

> <Charge Total>
0

> <Hydrophobic Total>
7

> <HydrogenBond Total>
1

> <Other Total>
0

> <Favorable A:LYS6>
0

> <Favorable A:ARG55>
0

> <Favorable A:LEU58>
0

> <Favorable A:LEU61>
0

> <Favorable A:ILE62>
0

> <Favorable A:GLY64>
0

> <Favorable A:SER65>
0

> <Favorable A:TRP66>
0

> <Favorable A:SER69>
0

> <Favorable A:VAL70>
0

> <Favorable A:PRO73>
0

> <Favorable A:ALA74>
0

> <Favorable A:PHE76>
0

> <Favorable A:ALA77>
0

> <Favorable A:THR78>
0

> <Favorable A:GLU79>
0

> <Favorable A:PHE82>
0

> <Favorable A:ARG83>
0

> <Favorable A:LEU85>
0

> <Favorable A:THR86>
0

> <Favorable A:TRP89>
0

> <Favorable A:THR90>
0

> <Favorable A:ASN93>
1

> <Favorable A:HIS94>
0

> <Favorable A:SER96>
0

> <Favorable A:VAL97>
1

> <Favorable A:TRP98>
0

> <Favorable A:PHE140>
0

> <Favorable A:LEU141>
0

> <Favorable A:ASN144>
0

> <Favorable A:ILE148>
0

> <Favorable A:ILE150>
0

> <Favorable A:HIS151>
0

> <Favorable A:ILE152>
0

> <Favorable A:ALA154>
0

> <Favorable A:SER155>
0

> <Favorable A:ILE156>
0

> <Favorable A:GLY158>
0

> <Favorable A:TYR159>
0

> <Favorable A:ARG160>
0

> <Favorable A:ARG161>
0

> <Favorable A:ASN162>
0

> <Favorable A:LYS163>
0

> <Favorable A:SER167>
0

> <Favorable A:ASP168>
0

> <Favorable A:SER169>
0

> <Favorable A:ASN171>
0

> <Favorable A:PHE172>
0

> <Favorable A:THR173>
0

> <Favorable A:ARG174>
0

> <Favorable A:PHE175>
0

> <Favorable A:SER176>
0

> <Favorable A:SER177>
0

> <Favorable A:LEU178>
0

> <Favorable A:ILE179>
0

> <Favorable A:VAL180>
0

> <Favorable A:LEU181>
0

> <Favorable A:SER183>
0

> <Favorable A:THR184>
0

> <Favorable A:PHE186>
0

> <Favorable A:ILE187>
2

> <Favorable A:PHE188>
0

> <Favorable A:ILE189>
0

> <Favorable A:PRO190>
1

> <Favorable A:PHE191>
0

> <Favorable A:TYR240>
1

> <Favorable A:PHE243>
0

> <Favorable A:SER244>
0

> <Favorable A:PHE247>
1

> <Favorable A:PHE248>
1

> <Favorable A:VAL251>
0

> <Favorable A:TRP252>
0

> <Favorable A:SER254>
0

> <Favorable A:GLU255>
0

> <Favorable A:ARG256>
0

> <Favorable A:LEU257>
0

> <Favorable A:GLU258>
0

> <Favorable A:GLU259>
0

> <Favorable A:LEU261>
0

> <Favorable A:ILE262>
0

> <Favorable A:ILE263>
0

> <Favorable A:SER265>
0

> <Favorable A:GLN266>
0

> <Favorable A:MET268>
0

> <Favorable A:GLY269>
0

> <Favorable A:TYR272>
0

> <Favorable A:PRO273>
0

> <Unfavorable A:ARG55>
0

> <Unfavorable A:PRO73>
0

> <Unfavorable A:PHE76>
0

> <Unfavorable A:GLU79>
0

> <Unfavorable A:ARG83>
0

> <Unfavorable A:THR86>
0

> <Unfavorable A:TRP89>
0

> <Unfavorable A:THR90>
0

> <Unfavorable A:ASN93>
0

> <Unfavorable A:TRP98>
0

> <Unfavorable A:ASN144>
0

> <Unfavorable A:SER155>
0

> <Unfavorable A:GLY158>
0

> <Unfavorable A:TYR159>
0

> <Unfavorable A:ASN162>
0

> <Unfavorable A:ASP168>
0

> <Unfavorable A:ASN171>
0

> <Unfavorable A:THR173>
0

> <Unfavorable A:ARG174>
0

> <Unfavorable A:SER183>
0

> <Unfavorable A:THR184>
0

> <Unfavorable A:PHE186>
0

> <Unfavorable A:SER244>
0

> <Unfavorable A:SER254>
0

> <Unfavorable A:GLU255>
0

> <Unfavorable A:SER265>
0

> <Unfavorable A:GLN266>
0

> <Unfavorable A:GLY269>
0

> <Charge A:ARG55>
0

> <Charge A:PHE76>
0

> <Charge A:GLU79>
0

> <Charge A:PHE82>
0

> <Charge A:ARG83>
0

> <Charge A:TRP89>
0

> <Charge A:HIS94>
0

> <Charge A:TRP98>
0

> <Charge A:TYR159>
0

> <Charge A:ARG161>
0

> <Charge A:LYS163>
0

> <Charge A:ASP168>
0

> <Charge A:PHE172>
0

> <Charge A:ARG174>
0

> <Charge A:PHE175>
0

> <Charge A:PHE188>
0

> <Charge A:PHE247>
0

> <Charge A:PHE248>
0

> <Hydrophobic A:LEU58>
0

> <Hydrophobic A:LEU61>
0

> <Hydrophobic A:ILE62>
0

> <Hydrophobic A:TRP66>
0

> <Hydrophobic A:VAL70>
0

> <Hydrophobic A:PRO73>
0

> <Hydrophobic A:ALA74>
0

> <Hydrophobic A:PHE76>
0

> <Hydrophobic A:ALA77>
0

> <Hydrophobic A:THR78>
0

> <Hydrophobic A:PHE82>
0

> <Hydrophobic A:ARG83>
0

> <Hydrophobic A:LEU85>
0

> <Hydrophobic A:TRP89>
0

> <Hydrophobic A:THR90>
0

> <Hydrophobic A:ASN93>
0

> <Hydrophobic A:HIS94>
0

> <Hydrophobic A:VAL97>
1

> <Hydrophobic A:TRP98>
0

> <Hydrophobic A:PHE140>
0

> <Hydrophobic A:LEU141>
0

> <Hydrophobic A:ILE148>
0

> <Hydrophobic A:ILE150>
0

> <Hydrophobic A:HIS151>
0

> <Hydrophobic A:ILE152>
0

> <Hydrophobic A:ALA154>
0

> <Hydrophobic A:SER155>
0

> <Hydrophobic A:ILE156>
0

> <Hydrophobic A:GLY158>
0

> <Hydrophobic A:TYR159>
0

> <Hydrophobic A:ARG160>
0

> <Hydrophobic A:ARG161>
0

> <Hydrophobic A:ASP168>
0

> <Hydrophobic A:ASN171>
0

> <Hydrophobic A:PHE172>
0

> <Hydrophobic A:ARG174>
0

> <Hydrophobic A:PHE175>
0

> <Hydrophobic A:LEU178>
0

> <Hydrophobic A:ILE179>
0

> <Hydrophobic A:VAL180>
0

> <Hydrophobic A:LEU181>
0

> <Hydrophobic A:PHE186>
0

> <Hydrophobic A:ILE187>
2

> <Hydrophobic A:PHE188>
0

> <Hydrophobic A:ILE189>
0

> <Hydrophobic A:PRO190>
1

> <Hydrophobic A:PHE191>
0

> <Hydrophobic A:TYR240>
1

> <Hydrophobic A:PHE243>
0

> <Hydrophobic A:PHE247>
1

> <Hydrophobic A:PHE248>
1

> <Hydrophobic A:VAL251>
0

> <Hydrophobic A:TRP252>
0

> <Hydrophobic A:SER254>
0

> <Hydrophobic A:LEU261>
0

> <Hydrophobic A:ILE262>
0

> <Hydrophobic A:ILE263>
0

> <Hydrophobic A:TYR272>
0

> <Hydrophobic A:PRO273>
0

> <HydrogenBond A:LYS6>
0

> <HydrogenBond A:ARG55>
0

> <HydrogenBond A:GLY64>
0

> <HydrogenBond A:SER65>
0

> <HydrogenBond A:TRP66>
0

> <HydrogenBond A:SER69>
0

> <HydrogenBond A:PRO73>
0

> <HydrogenBond A:ALA74>
0

> <HydrogenBond A:PHE76>
0

> <HydrogenBond A:ALA77>
0

> <HydrogenBond A:THR78>
0

> <HydrogenBond A:GLU79>
0

> <HydrogenBond A:PHE82>
0

> <HydrogenBond A:ARG83>
0

> <HydrogenBond A:LEU85>
0

> <HydrogenBond A:THR86>
0

> <HydrogenBond A:TRP89>
0

> <HydrogenBond A:THR90>
0

> <HydrogenBond A:ASN93>
1

> <HydrogenBond A:HIS94>
0

> <HydrogenBond A:SER96>
0

> <HydrogenBond A:TRP98>
0

> <HydrogenBond A:ASN144>
0

> <HydrogenBond A:HIS151>
0

> <HydrogenBond A:ILE152>
0

> <HydrogenBond A:ALA154>
0

> <HydrogenBond A:SER155>
0

> <HydrogenBond A:ILE156>
0

> <HydrogenBond A:GLY158>
0

> <HydrogenBond A:TYR159>
0

> <HydrogenBond A:ASN162>
0

> <HydrogenBond A:LYS163>
0

> <HydrogenBond A:SER167>
0

> <HydrogenBond A:ASP168>
0

> <HydrogenBond A:SER169>
0

> <HydrogenBond A:ASN171>
0

> <HydrogenBond A:PHE172>
0

> <HydrogenBond A:THR173>
0

> <HydrogenBond A:ARG174>
0

> <HydrogenBond A:PHE175>
0

> <HydrogenBond A:SER176>
0

> <HydrogenBond A:SER177>
0

> <HydrogenBond A:ILE179>
0

> <HydrogenBond A:VAL180>
0

> <HydrogenBond A:SER183>
0

> <HydrogenBond A:THR184>
0

> <HydrogenBond A:PHE186>
0

> <HydrogenBond A:ILE187>
0

> <HydrogenBond A:PRO190>
0

> <HydrogenBond A:TYR240>
0

> <HydrogenBond A:PHE243>
0

> <HydrogenBond A:SER244>
0

> <HydrogenBond A:PHE247>
0

> <HydrogenBond A:VAL251>
0

> <HydrogenBond A:SER254>
0

> <HydrogenBond A:GLU255>
0

> <HydrogenBond A:ARG256>
0

> <HydrogenBond A:LEU257>
0

> <HydrogenBond A:GLU258>
0

> <HydrogenBond A:GLU259>
0

> <HydrogenBond A:ILE262>
0

> <HydrogenBond A:SER265>
0

> <HydrogenBond A:GLN266>
0

> <HydrogenBond A:MET268>
0

> <HydrogenBond A:GLY269>
0

> <HydrogenBond A:PRO273>
0

> <Other A:SER69>
0

> <Other A:TRP89>
0

> <Other A:TYR159>
0

> <Other A:PHE172>
0

> <Other A:SER176>
0

> <Other A:SER265>
0

$$$$
7076549
  SciTegic09122300493D

 27 28  0  0  0  0            999 V2000
    4.1239    0.7486   -1.1932 O   0  0  0  1  0  0
    7.5216   -0.9920    2.4009 O   0  0  0  1  0  0
    6.0147    0.5329    1.7380 N   0  0  0  1  0  0
    5.9845   -0.4990   -0.8077 N   0  0  0  1  0  0
    5.4937    1.3669    0.6637 C   0  0  1  1  0  0
    6.4895    2.4718    0.2940 C   0  0  0  1  0  0
    5.1405    0.5171   -0.5604 C   0  0  0  1  0  0
    7.2640    2.9120    1.5010 C   0  0  0  1  0  0
    7.1488   -0.7844    0.0337 C   0  0  0  1  0  0
    6.9221   -0.4271    1.5104 C   0  0  0  1  0  0
    8.5612    2.4499    1.6756 C   0  0  0  1  0  0
    6.6911    3.7130    2.4832 C   0  0  0  1  0  0
    9.3069    2.8369    2.7736 C   0  0  0  1  0  0
    7.4381    4.1150    3.5748 C   0  0  0  1  0  0
    8.7452    3.6902    3.7042 C   0  0  0  1  0  0
    5.7915    0.6982    2.6963 H   0  0
    5.7555   -1.0869   -1.5857 H   0  0
    4.5828    1.8105    1.0631 H   0  0
    5.9772    3.3198   -0.1581 H   0  0
    7.1982    2.1240   -0.4602 H   0  0
    7.9974   -0.2304   -0.3670 H   0  0
    7.3488   -1.8533   -0.0390 H   0  0
    8.9843    1.7795    0.9471 H   0  0
    5.6726    4.0501    2.4189 H   0  0
   10.3211    2.4873    2.9052 H   0  0
    7.0224    4.7848    4.3102 H   0  0
    9.3353    4.0369    4.5294 H   0  0
  1  7  2  0
  2 10  2  0
  3  5  1  0
  3 10  1  0
  4  7  1  0
  4  9  1  0
  5  6  1  0
  5  7  1  0
  6  8  1  0
  8 11  2  0
  8 12  1  0
  9 10  1  0
 11 13  1  0
 12 14  2  0
 13 15  2  0
 14 15  1  0
  3 16  1  0
  4 17  1  0
  5 18  1  0
  6 19  1  0
  6 20  1  0
  9 21  1  0
  9 22  1  0
 11 23  1  0
 12 24  1  0
 13 25  1  0
 14 26  1  0
 15 27  1  0
M  END
> <Name>
7076549

> <Binding Energy>
-91.7673

> <Ligand Energy>
-13.3353

> <Protein Energy>
-7801.1566

> <Complex Energy>
-7906.2592

> <Complex Entropy>
-31.4771

> <Protein Entropy>
-31.4717

> <Ligand Entropy>
-18.2339

> <Entropic Energy>
18.2285

> <AbsoluteEnergy>
17.8402

> <ConfNumber>
3

> <IonizationIndex>
1

> <MOL_NUMBER>
469

> <NumberOfIonizations>
1

> <NumberOfStereoisomers>
1

> <NumberOfTautomers>
1

> <PUBCHEM_ATOM_DEF_STEREO_COUNT>
1

> <PUBCHEM_ATOM_UDEF_STEREO_COUNT>
0

> <PUBCHEM_BOND_DEF_STEREO_COUNT>
0

> <PUBCHEM_BOND_UDEF_STEREO_COUNT>
0

> <PUBCHEM_CACTVS_TAUTO_COUNT>
4

> <PUBCHEM_COMPONENT_COUNT>
1

> <PUBCHEM_COMPOUND_CID>
7076549

> <PUBCHEM_CONFORMER_DIVERSEORDER>
1
9
4
6
5
8
7
3
2

> <PUBCHEM_CONFORMER_ID>
006BFAC500000001

> <PUBCHEM_CONFORMER_RMSD>
0.6

> <PUBCHEM_COORDINATE_TYPE>
2
5
10

> <PUBCHEM_EFFECTIVE_ROTOR_COUNT>
2.8

> <PUBCHEM_FEATURE_SELFOVERLAP>
30.454

> <PUBCHEM_HEAVY_ATOM_COUNT>
15

> <PUBCHEM_ISOTOPIC_ATOM_COUNT>
0

> <PUBCHEM_MMFF94_ENERGY>
48.2593

> <PUBCHEM_MMFF94_PARTIAL_CHARGES>
22
1 -0.57
10 0.57
11 -0.15
12 -0.15
13 -0.15
14 -0.15
15 -0.15
19 0.37
2 -0.57
22 0.37
23 0.15
24 0.15
25 0.15
26 0.15
27 0.15
3 -0.73
4 -0.73
5 0.36
6 0.14
7 0.57
8 -0.14
9 0.36

> <PUBCHEM_PHARMACOPHORE_FEATURES>
6
1 1 acceptor
1 2 acceptor
1 3 donor
1 4 donor
6 3 4 5 7 9 10 rings
6 8 11 12 13 14 15 rings

> <PUBCHEM_SHAPE_FINGERPRINT>
10608611 8 18408038528908435845
10616163 171 18267586995080630855
10922523 26 18260266326524633189
116883 192 18193555562806383844
12162725 195 18410292527644974409
12932764 1 18336001816900988365
13296908 3 18342742883967768007
13571099 22 18341331080893648843
14144814 61 18410858746010329945
14350558 41 18413672400365538683
14415576 193 18262521514788323428
15219456 202 18409729573459726893
15375462 6 18337673117467027693
15442244 35 18195811773466780633
16945 1 18410867559072198688
17492 89 18411135840348135343
17990270 104 18410296887042022194
18186145 218 18338520738068865173
18619055 16 18342738529108020847
200 152 18059851779435652021
20201158 50 18411138034748577043
20559304 39 18413672422051618536
20645477 56 18187363217030941285
20645477 70 18409727365989260511
20671657 53 18198070174798362622
21501502 16 18411421726181665417
21501925 9 18412256229378485178
221490 88 18336557100200987194
23402539 116 18337658768287279389
23463225 33 18412544301641155749
23559900 14 18341044125628326434
57812782 119 18333728014022463325
58051976 100 18410295813611402247
58051976 378 18341049721770207653
69090 78 18410849954665975095
7364860 26 18411983576538978440
74978 22 18337398149444592809
81539 233 18262238953522341132
93112 12 18409167697248129669
9709674 26 18408889555150749147

> <PUBCHEM_SHAPE_MULTIPOLES>
286.99
6.84
2.17
0.79
3.45
0.13
0.04
0.65
-0.16
-1.52
-0.28
-0.12
0.04
0.09

> <PUBCHEM_SHAPE_SELFOVERLAP>
607.792

> <PUBCHEM_SHAPE_VOLUME>
158.4

> <RelativeEnergy>
0.614578

> <StereoisomerIndex>
1

> <TautomerIndex>
1

> <POSE_NUMBER>
1

> <LibDockScore>
85.4351

> <HotSpots>
6.61,-0.93,-0.06,A,65,9
9.21,2.67,2.54,A,84,11
7.81,4.27,4.14,A,90,14

> <-In-Situ Starting Energy>
-25.800692

> <-In-Situ Final Energy>
34.6576153

> <In-Situ Gradient>
0.0008164483395

> <Favorable Total>
8

> <Unfavorable Total>
1

> <Charge Total>
0

> <Hydrophobic Total>
2

> <HydrogenBond Total>
6

> <Other Total>
0

> <Favorable A:LYS6>
0

> <Favorable A:ARG55>
1

> <Favorable A:LEU58>
0

> <Favorable A:LEU61>
0

> <Favorable A:ILE62>
0

> <Favorable A:GLY64>
0

> <Favorable A:SER65>
0

> <Favorable A:TRP66>
0

> <Favorable A:SER69>
0

> <Favorable A:VAL70>
0

> <Favorable A:PRO73>
0

> <Favorable A:ALA74>
0

> <Favorable A:PHE76>
0

> <Favorable A:ALA77>
0

> <Favorable A:THR78>
0

> <Favorable A:GLU79>
0

> <Favorable A:PHE82>
0

> <Favorable A:ARG83>
0

> <Favorable A:LEU85>
0

> <Favorable A:THR86>
0

> <Favorable A:TRP89>
0

> <Favorable A:THR90>
0

> <Favorable A:ASN93>
0

> <Favorable A:HIS94>
0

> <Favorable A:SER96>
0

> <Favorable A:VAL97>
1

> <Favorable A:TRP98>
0

> <Favorable A:PHE140>
0

> <Favorable A:LEU141>
0

> <Favorable A:ASN144>
0

> <Favorable A:ILE148>
0

> <Favorable A:ILE150>
0

> <Favorable A:HIS151>
0

> <Favorable A:ILE152>
0

> <Favorable A:ALA154>
0

> <Favorable A:SER155>
0

> <Favorable A:ILE156>
0

> <Favorable A:GLY158>
0

> <Favorable A:TYR159>
0

> <Favorable A:ARG160>
0

> <Favorable A:ARG161>
0

> <Favorable A:ASN162>
0

> <Favorable A:LYS163>
0

> <Favorable A:SER167>
0

> <Favorable A:ASP168>
0

> <Favorable A:SER169>
0

> <Favorable A:ASN171>
0

> <Favorable A:PHE172>
0

> <Favorable A:THR173>
0

> <Favorable A:ARG174>
0

> <Favorable A:PHE175>
0

> <Favorable A:SER176>
0

> <Favorable A:SER177>
0

> <Favorable A:LEU178>
0

> <Favorable A:ILE179>
0

> <Favorable A:VAL180>
0

> <Favorable A:LEU181>
0

> <Favorable A:SER183>
0

> <Favorable A:THR184>
0

> <Favorable A:PHE186>
0

> <Favorable A:ILE187>
1

> <Favorable A:PHE188>
0

> <Favorable A:ILE189>
0

> <Favorable A:PRO190>
0

> <Favorable A:PHE191>
0

> <Favorable A:TYR240>
0

> <Favorable A:PHE243>
0

> <Favorable A:SER244>
2

> <Favorable A:PHE247>
0

> <Favorable A:PHE248>
0

> <Favorable A:VAL251>
0

> <Favorable A:TRP252>
0

> <Favorable A:SER254>
0

> <Favorable A:GLU255>
0

> <Favorable A:ARG256>
0

> <Favorable A:LEU257>
0

> <Favorable A:GLU258>
0

> <Favorable A:GLU259>
0

> <Favorable A:LEU261>
0

> <Favorable A:ILE262>
0

> <Favorable A:ILE263>
0

> <Favorable A:SER265>
0

> <Favorable A:GLN266>
0

> <Favorable A:MET268>
1

> <Favorable A:GLY269>
1

> <Favorable A:TYR272>
0

> <Favorable A:PRO273>
1

> <Unfavorable A:ARG55>
0

> <Unfavorable A:PRO73>
0

> <Unfavorable A:PHE76>
0

> <Unfavorable A:GLU79>
0

> <Unfavorable A:ARG83>
0

> <Unfavorable A:THR86>
0

> <Unfavorable A:TRP89>
0

> <Unfavorable A:THR90>
0

> <Unfavorable A:ASN93>
0

> <Unfavorable A:TRP98>
0

> <Unfavorable A:ASN144>
0

> <Unfavorable A:SER155>
0

> <Unfavorable A:GLY158>
0

> <Unfavorable A:TYR159>
0

> <Unfavorable A:ASN162>
0

> <Unfavorable A:ASP168>
0

> <Unfavorable A:ASN171>
0

> <Unfavorable A:THR173>
0

> <Unfavorable A:ARG174>
0

> <Unfavorable A:SER183>
0

> <Unfavorable A:THR184>
0

> <Unfavorable A:PHE186>
0

> <Unfavorable A:SER244>
1

> <Unfavorable A:SER254>
0

> <Unfavorable A:GLU255>
0

> <Unfavorable A:SER265>
0

> <Unfavorable A:GLN266>
0

> <Unfavorable A:GLY269>
0

> <Charge A:ARG55>
0

> <Charge A:PHE76>
0

> <Charge A:GLU79>
0

> <Charge A:PHE82>
0

> <Charge A:ARG83>
0

> <Charge A:TRP89>
0

> <Charge A:HIS94>
0

> <Charge A:TRP98>
0

> <Charge A:TYR159>
0

> <Charge A:ARG161>
0

> <Charge A:LYS163>
0

> <Charge A:ASP168>
0

> <Charge A:PHE172>
0

> <Charge A:ARG174>
0

> <Charge A:PHE175>
0

> <Charge A:PHE188>
0

> <Charge A:PHE247>
0

> <Charge A:PHE248>
0

> <Hydrophobic A:LEU58>
0

> <Hydrophobic A:LEU61>
0

> <Hydrophobic A:ILE62>
0

> <Hydrophobic A:TRP66>
0

> <Hydrophobic A:VAL70>
0

> <Hydrophobic A:PRO73>
0

> <Hydrophobic A:ALA74>
0

> <Hydrophobic A:PHE76>
0

> <Hydrophobic A:ALA77>
0

> <Hydrophobic A:THR78>
0

> <Hydrophobic A:PHE82>
0

> <Hydrophobic A:ARG83>
0

> <Hydrophobic A:LEU85>
0

> <Hydrophobic A:TRP89>
0

> <Hydrophobic A:THR90>
0

> <Hydrophobic A:ASN93>
0

> <Hydrophobic A:HIS94>
0

> <Hydrophobic A:VAL97>
1

> <Hydrophobic A:TRP98>
0

> <Hydrophobic A:PHE140>
0

> <Hydrophobic A:LEU141>
0

> <Hydrophobic A:ILE148>
0

> <Hydrophobic A:ILE150>
0

> <Hydrophobic A:HIS151>
0

> <Hydrophobic A:ILE152>
0

> <Hydrophobic A:ALA154>
0

> <Hydrophobic A:SER155>
0

> <Hydrophobic A:ILE156>
0

> <Hydrophobic A:GLY158>
0

> <Hydrophobic A:TYR159>
0

> <Hydrophobic A:ARG160>
0

> <Hydrophobic A:ARG161>
0

> <Hydrophobic A:ASP168>
0

> <Hydrophobic A:ASN171>
0

> <Hydrophobic A:PHE172>
0

> <Hydrophobic A:ARG174>
0

> <Hydrophobic A:PHE175>
0

> <Hydrophobic A:LEU178>
0

> <Hydrophobic A:ILE179>
0

> <Hydrophobic A:VAL180>
0

> <Hydrophobic A:LEU181>
0

> <Hydrophobic A:PHE186>
0

> <Hydrophobic A:ILE187>
1

> <Hydrophobic A:PHE188>
0

> <Hydrophobic A:ILE189>
0

> <Hydrophobic A:PRO190>
0

> <Hydrophobic A:PHE191>
0

> <Hydrophobic A:TYR240>
0

> <Hydrophobic A:PHE243>
0

> <Hydrophobic A:PHE247>
0

> <Hydrophobic A:PHE248>
0

> <Hydrophobic A:VAL251>
0

> <Hydrophobic A:TRP252>
0

> <Hydrophobic A:SER254>
0

> <Hydrophobic A:LEU261>
0

> <Hydrophobic A:ILE262>
0

> <Hydrophobic A:ILE263>
0

> <Hydrophobic A:TYR272>
0

> <Hydrophobic A:PRO273>
0

> <HydrogenBond A:LYS6>
0

> <HydrogenBond A:ARG55>
1

> <HydrogenBond A:GLY64>
0

> <HydrogenBond A:SER65>
0

> <HydrogenBond A:TRP66>
0

> <HydrogenBond A:SER69>
0

> <HydrogenBond A:PRO73>
0

> <HydrogenBond A:ALA74>
0

> <HydrogenBond A:PHE76>
0

> <HydrogenBond A:ALA77>
0

> <HydrogenBond A:THR78>
0

> <HydrogenBond A:GLU79>
0

> <HydrogenBond A:PHE82>
0

> <HydrogenBond A:ARG83>
0

> <HydrogenBond A:LEU85>
0

> <HydrogenBond A:THR86>
0

> <HydrogenBond A:TRP89>
0

> <HydrogenBond A:THR90>
0

> <HydrogenBond A:ASN93>
0

> <HydrogenBond A:HIS94>
0

> <HydrogenBond A:SER96>
0

> <HydrogenBond A:TRP98>
0

> <HydrogenBond A:ASN144>
0

> <HydrogenBond A:HIS151>
0

> <HydrogenBond A:ILE152>
0

> <HydrogenBond A:ALA154>
0

> <HydrogenBond A:SER155>
0

> <HydrogenBond A:ILE156>
0

> <HydrogenBond A:GLY158>
0

> <HydrogenBond A:TYR159>
0

> <HydrogenBond A:ASN162>
0

> <HydrogenBond A:LYS163>
0

> <HydrogenBond A:SER167>
0

> <HydrogenBond A:ASP168>
0

> <HydrogenBond A:SER169>
0

> <HydrogenBond A:ASN171>
0

> <HydrogenBond A:PHE172>
0

> <HydrogenBond A:THR173>
0

> <HydrogenBond A:ARG174>
0

> <HydrogenBond A:PHE175>
0

> <HydrogenBond A:SER176>
0

> <HydrogenBond A:SER177>
0

> <HydrogenBond A:ILE179>
0

> <HydrogenBond A:VAL180>
0

> <HydrogenBond A:SER183>
0

> <HydrogenBond A:THR184>
0

> <HydrogenBond A:PHE186>
0

> <HydrogenBond A:ILE187>
0

> <HydrogenBond A:PRO190>
0

> <HydrogenBond A:TYR240>
0

> <HydrogenBond A:PHE243>
0

> <HydrogenBond A:SER244>
2

> <HydrogenBond A:PHE247>
0

> <HydrogenBond A:VAL251>
0

> <HydrogenBond A:SER254>
0

> <HydrogenBond A:GLU255>
0

> <HydrogenBond A:ARG256>
0

> <HydrogenBond A:LEU257>
0

> <HydrogenBond A:GLU258>
0

> <HydrogenBond A:GLU259>
0

> <HydrogenBond A:ILE262>
0

> <HydrogenBond A:SER265>
0

> <HydrogenBond A:GLN266>
0

> <HydrogenBond A:MET268>
1

> <HydrogenBond A:GLY269>
1

> <HydrogenBond A:PRO273>
1

> <Other A:SER69>
0

> <Other A:TRP89>
0

> <Other A:TYR159>
0

> <Other A:PHE172>
0

> <Other A:SER176>
0

> <Other A:SER265>
0

$$$$
9858729
  SciTegic09122300493D

 56 55  0  0  0  0            999 V2000
    8.1384    6.5027   -5.4691 O   0  0  0  1  0  0
    9.5538    4.8654   -4.4705 O   0  0  0  1  0  0
   13.8105    6.9873   -7.4365 O   0  0  0  1  0  0
   15.0643    2.3392  -16.2959 O   0  5  0  1  0  0
   17.0010    3.2119  -15.9266 O   0  0  0  1  0  0
   13.6909    5.0638   -9.7730 C   0  0  0  1  0  0
   14.0486    3.8266  -10.6080 C   0  0  0  1  0  0
    9.2097    7.2718   -4.9772 C   0  0  1  1  0  0
   13.3739    4.7486   -8.3041 C   0  0  0  1  0  0
    8.7228    8.1299   -3.7986 C   0  0  0  1  0  0
   13.9444    4.1204  -12.1108 C   0  0  0  1  0  0
    8.1004    9.4769   -4.1179 C   0  0  0  1  0  0
   10.2051    6.0966   -4.7354 C   0  0  2  1  0  0
   12.8371    5.9889   -7.5864 C   0  0  1  1  0  0
   14.2794    2.9183  -13.0044 C   0  0  0  1  0  0
    7.6596   10.2075   -2.8338 C   0  0  0  1  0  0
   15.7872    2.6283  -13.0815 C   0  0  0  1  0  0
   11.0136    5.9542   -5.9891 C   0  0  0  1  0  0
   12.3133    5.7386   -6.2036 C   0  0  0  1  0  0
    6.6289    9.4374   -2.0072 C   0  0  0  1  0  0
   16.1667    1.7192  -14.2638 C   0  0  0  1  0  0
    6.1807   10.1836   -0.7457 C   0  0  0  1  0  0
   16.0704    2.4768  -15.6014 C   0  0  0  1  0  0
    7.4942    7.0933   -5.7982 H   0  0
    8.6116    5.0111   -4.5682 H   0  0
   13.4170    7.7716   -7.0368 H   0  0
   14.4968    5.7975   -9.8287 H   0  0
   12.8178    5.5429  -10.2176 H   0  0
   15.0530    3.4867  -10.3533 H   0  0
   13.3714    3.0078  -10.3631 H   0  0
    9.6167    7.9438   -5.7437 H   0  0
   12.6095    3.9714   -8.2695 H   0  0
   14.2397    4.3402   -7.7929 H   0  0
    9.5614    8.3073   -3.1271 H   0  0
    7.9293    7.5905   -3.2900 H   0  0
   12.9253    4.4376  -12.3333 H   0  0
   14.5852    4.9635  -12.3708 H   0  0
    8.8541   10.0471   -4.6494 H   0  0
    7.2386    9.3690   -4.7755 H   0  0
   10.8819    6.2820   -3.9031 H   0  0
   12.0381    6.3774   -8.2309 H   0  0
   13.9006    3.1200  -14.0063 H   0  0
   13.7445    2.0300  -12.6684 H   0  0
    7.1924   11.1519   -3.1028 H   0  0
    8.5298   10.4280   -2.2153 H   0  0
   16.1077    2.1645  -12.1488 H   0  0
   16.3475    3.5618  -13.1588 H   0  0
   10.4587    6.2401   -6.8536 H   0  0
   12.9999    5.4427   -5.4316 H   0  0
    5.7971    9.2064   -2.6617 H   0  0
    7.0124    8.4779   -1.6904 H   0  0
   17.1917    1.3658  -14.1491 H   0  0
   15.5290    0.8352  -14.2965 H   0  0
    5.7665   11.1585   -0.9837 H   0  0
    7.0191   10.3352   -0.0654 H   0  0
    5.4197    9.6179   -0.2065 H   0  0
  1  8  1  0
  2 13  1  0
  3 14  1  0
  4 23  1  0
  5 23  2  0
  6  7  1  0
  6  9  1  0
  7 11  1  0
  8 10  1  0
  8 13  1  0
  9 14  1  0
 10 12  1  0
 11 15  1  0
 12 16  1  0
 13 18  1  0
 14 19  1  0
 15 17  1  0
 16 20  1  0
 17 21  1  0
 18 19  2  0
 20 22  1  0
 21 23  1  0
  1 24  1  0
  2 25  1  0
  3 26  1  0
  6 27  1  0
  6 28  1  0
  7 29  1  0
  7 30  1  0
  8 31  1  0
  9 32  1  0
  9 33  1  0
 10 34  1  0
 10 35  1  0
 11 36  1  0
 11 37  1  0
 12 38  1  0
 12 39  1  0
 13 40  1  0
 14 41  1  0
 15 42  1  0
 15 43  1  0
 16 44  1  0
 16 45  1  0
 17 46  1  0
 17 47  1  0
 18 48  1  0
 19 49  1  0
 20 50  1  0
 20 51  1  0
 21 52  1  0
 21 53  1  0
 22 54  1  0
 22 55  1  0
 22 56  1  0
M  CHG  1   4  -1
M  END
> <Name>
9858729

> <Binding Energy>
-18.0153

> <Ligand Energy>
18.615

> <Protein Energy>
-7801.1566

> <Complex Energy>
-7800.557

> <Complex Entropy>
-31.483

> <Protein Entropy>
-31.4717

> <Ligand Entropy>
-20.1382

> <Entropic Energy>
20.1269

> <AbsoluteEnergy>
18.6574

> <ConfNumber>
40

> <Ionization pH>
7.5

> <IonizationIndex>
1

> <MOL_NUMBER>
475

> <NumberOfIonizations>
1

> <NumberOfStereoisomers>
1

> <NumberOfTautomers>
1

> <PUBCHEM_ATOM_DEF_STEREO_COUNT>
3

> <PUBCHEM_ATOM_UDEF_STEREO_COUNT>
0

> <PUBCHEM_BOND_DEF_STEREO_COUNT>
1

> <PUBCHEM_BOND_UDEF_STEREO_COUNT>
0

> <PUBCHEM_CACTVS_TAUTO_COUNT>
1

> <PUBCHEM_COMPONENT_COUNT>
1

> <PUBCHEM_COMPOUND_CID>
9858729

> <PUBCHEM_CONFORMER_DIVERSEORDER>
1
44
13
56
95
136
45
24
21
140
67
82
96
111
60
121
32
4
9
84
76
6
132
8
22
30
98
88
119
42
104
116
130
122
33
91
71
113
124
34
103
106
138
50
41
87
49
74
137
35
66
31
101
47
48
70
79
26
123
68
10
77
126
65
89
134
38
110
28
73
52
12
20
53
37
109
72
51
58
16
69
86
2
81
14
117
78
102
114
59
7
27
11
43
112
29
131
40
36
61
15
129
64
5
133
25
63
125
85
115
18
83
105
57
120
90
62
107
23
93
92
17
139
46
54
80
3
127
99
19
55
94
100
128
118
135
39
75
97
108

> <PUBCHEM_CONFORMER_ID>
00966EA900000001

> <PUBCHEM_CONFORMER_RMSD>
1.4

> <PUBCHEM_COORDINATE_TYPE>
2
5
10

> <PUBCHEM_EFFECTIVE_ROTOR_COUNT>
15

> <PUBCHEM_FEATURE_SELFOVERLAP>
55.879

> <PUBCHEM_HEAVY_ATOM_COUNT>
23

> <PUBCHEM_ISOTOPIC_ATOM_COUNT>
0

> <PUBCHEM_MMFF94_ENERGY>
15.2687

> <PUBCHEM_MMFF94_PARTIAL_CHARGES>
18
1 -0.68
13 0.42
14 0.42
18 -0.29
19 -0.29
2 -0.68
21 0.06
23 0.66
3 -0.68
4 -0.65
45 0.15
46 0.15
5 -0.57
51 0.4
55 0.4
56 0.4
57 0.5
8 0.28

> <PUBCHEM_PHARMACOPHORE_FEATURES>
11
1 1 acceptor
1 1 donor
1 2 acceptor
1 2 donor
1 22 hydrophobe
1 3 acceptor
1 3 donor
1 4 acceptor
1 5 acceptor
3 4 5 23 anion
4 10 12 16 20 hydrophobe

> <PUBCHEM_SHAPE_FINGERPRINT>
11756154 5 17974292332653240746
13941206 138 18188211000319407170
14117953 113 17043725717224001573
14251740 79 18341618182309321740
14251757 17 17417548942045219524
14251757 5 18196941186973298124
14289585 56 17677051240228034388
14931854 50 18340481252768019831
15322534 239 18411142463334736222
16120349 306 18411130316972044856
23559900 14 17703785955404125696
474144 1 18265886965288224290
5282940 2 18337106761462076946
57828716 94 17531806828373230162
7064713 232 17268330740242719083

> <PUBCHEM_SHAPE_MULTIPOLES>
443.98
11.11
5
2.03
13.06
3.56
-0.1
-7.01
4.37
0.35
-2.4
0.35
1.13
-4.67

> <PUBCHEM_SHAPE_SELFOVERLAP>
832.78

> <PUBCHEM_SHAPE_VOLUME>
275.1

> <RelativeEnergy>
5.8103

> <StereoisomerIndex>
1

> <TautomerIndex>
1

> <POSE_NUMBER>
8

> <LibDockScore>
112.9893

> <HotSpots>
7.21,9.27,-3.25,A,45,12
10.81,8.27,-8.46,A,35,19
6.41,11.47,-0.06,A,67,22

> <-In-Situ Starting Energy>
-4987.32551

> <-In-Situ Final Energy>
2.94326202

> <In-Situ Gradient>
0.0008511894762

> <Favorable Total>
8

> <Unfavorable Total>
0

> <Charge Total>
0

> <Hydrophobic Total>
3

> <HydrogenBond Total>
5

> <Other Total>
0

> <Favorable A:LYS6>
0

> <Favorable A:ARG55>
0

> <Favorable A:LEU58>
0

> <Favorable A:LEU61>
0

> <Favorable A:ILE62>
0

> <Favorable A:GLY64>
0

> <Favorable A:SER65>
0

> <Favorable A:TRP66>
0

> <Favorable A:SER69>
0

> <Favorable A:VAL70>
0

> <Favorable A:PRO73>
0

> <Favorable A:ALA74>
0

> <Favorable A:PHE76>
0

> <Favorable A:ALA77>
0

> <Favorable A:THR78>
0

> <Favorable A:GLU79>
0

> <Favorable A:PHE82>
0

> <Favorable A:ARG83>
0

> <Favorable A:LEU85>
0

> <Favorable A:THR86>
0

> <Favorable A:TRP89>
1

> <Favorable A:THR90>
0

> <Favorable A:ASN93>
1

> <Favorable A:HIS94>
1

> <Favorable A:SER96>
0

> <Favorable A:VAL97>
0

> <Favorable A:TRP98>
1

> <Favorable A:PHE140>
0

> <Favorable A:LEU141>
0

> <Favorable A:ASN144>
0

> <Favorable A:ILE148>
0

> <Favorable A:ILE150>
0

> <Favorable A:HIS151>
0

> <Favorable A:ILE152>
0

> <Favorable A:ALA154>
0

> <Favorable A:SER155>
0

> <Favorable A:ILE156>
0

> <Favorable A:GLY158>
0

> <Favorable A:TYR159>
0

> <Favorable A:ARG160>
0

> <Favorable A:ARG161>
0

> <Favorable A:ASN162>
0

> <Favorable A:LYS163>
0

> <Favorable A:SER167>
0

> <Favorable A:ASP168>
0

> <Favorable A:SER169>
0

> <Favorable A:ASN171>
0

> <Favorable A:PHE172>
0

> <Favorable A:THR173>
0

> <Favorable A:ARG174>
0

> <Favorable A:PHE175>
0

> <Favorable A:SER176>
0

> <Favorable A:SER177>
0

> <Favorable A:LEU178>
0

> <Favorable A:ILE179>
1

> <Favorable A:VAL180>
1

> <Favorable A:LEU181>
0

> <Favorable A:SER183>
1

> <Favorable A:THR184>
0

> <Favorable A:PHE186>
0

> <Favorable A:ILE187>
1

> <Favorable A:PHE188>
0

> <Favorable A:ILE189>
0

> <Favorable A:PRO190>
0

> <Favorable A:PHE191>
0

> <Favorable A:TYR240>
0

> <Favorable A:PHE243>
0

> <Favorable A:SER244>
0

> <Favorable A:PHE247>
0

> <Favorable A:PHE248>
0

> <Favorable A:VAL251>
0

> <Favorable A:TRP252>
0

> <Favorable A:SER254>
0

> <Favorable A:GLU255>
0

> <Favorable A:ARG256>
0

> <Favorable A:LEU257>
0

> <Favorable A:GLU258>
0

> <Favorable A:GLU259>
0

> <Favorable A:LEU261>
0

> <Favorable A:ILE262>
0

> <Favorable A:ILE263>
0

> <Favorable A:SER265>
0

> <Favorable A:GLN266>
0

> <Favorable A:MET268>
0

> <Favorable A:GLY269>
0

> <Favorable A:TYR272>
0

> <Favorable A:PRO273>
0

> <Unfavorable A:ARG55>
0

> <Unfavorable A:PRO73>
0

> <Unfavorable A:PHE76>
0

> <Unfavorable A:GLU79>
0

> <Unfavorable A:ARG83>
0

> <Unfavorable A:THR86>
0

> <Unfavorable A:TRP89>
0

> <Unfavorable A:THR90>
0

> <Unfavorable A:ASN93>
0

> <Unfavorable A:TRP98>
0

> <Unfavorable A:ASN144>
0

> <Unfavorable A:SER155>
0

> <Unfavorable A:GLY158>
0

> <Unfavorable A:TYR159>
0

> <Unfavorable A:ASN162>
0

> <Unfavorable A:ASP168>
0

> <Unfavorable A:ASN171>
0

> <Unfavorable A:THR173>
0

> <Unfavorable A:ARG174>
0

> <Unfavorable A:SER183>
0

> <Unfavorable A:THR184>
0

> <Unfavorable A:PHE186>
0

> <Unfavorable A:SER244>
0

> <Unfavorable A:SER254>
0

> <Unfavorable A:GLU255>
0

> <Unfavorable A:SER265>
0

> <Unfavorable A:GLN266>
0

> <Unfavorable A:GLY269>
0

> <Charge A:ARG55>
0

> <Charge A:PHE76>
0

> <Charge A:GLU79>
0

> <Charge A:PHE82>
0

> <Charge A:ARG83>
0

> <Charge A:TRP89>
0

> <Charge A:HIS94>
0

> <Charge A:TRP98>
0

> <Charge A:TYR159>
0

> <Charge A:ARG161>
0

> <Charge A:LYS163>
0

> <Charge A:ASP168>
0

> <Charge A:PHE172>
0

> <Charge A:ARG174>
0

> <Charge A:PHE175>
0

> <Charge A:PHE188>
0

> <Charge A:PHE247>
0

> <Charge A:PHE248>
0

> <Hydrophobic A:LEU58>
0

> <Hydrophobic A:LEU61>
0

> <Hydrophobic A:ILE62>
0

> <Hydrophobic A:TRP66>
0

> <Hydrophobic A:VAL70>
0

> <Hydrophobic A:PRO73>
0

> <Hydrophobic A:ALA74>
0

> <Hydrophobic A:PHE76>
0

> <Hydrophobic A:ALA77>
0

> <Hydrophobic A:THR78>
0

> <Hydrophobic A:PHE82>
0

> <Hydrophobic A:ARG83>
0

> <Hydrophobic A:LEU85>
0

> <Hydrophobic A:TRP89>
0

> <Hydrophobic A:THR90>
0

> <Hydrophobic A:ASN93>
0

> <Hydrophobic A:HIS94>
1

> <Hydrophobic A:VAL97>
0

> <Hydrophobic A:TRP98>
1

> <Hydrophobic A:PHE140>
0

> <Hydrophobic A:LEU141>
0

> <Hydrophobic A:ILE148>
0

> <Hydrophobic A:ILE150>
0

> <Hydrophobic A:HIS151>
0

> <Hydrophobic A:ILE152>
0

> <Hydrophobic A:ALA154>
0

> <Hydrophobic A:SER155>
0

> <Hydrophobic A:ILE156>
0

> <Hydrophobic A:GLY158>
0

> <Hydrophobic A:TYR159>
0

> <Hydrophobic A:ARG160>
0

> <Hydrophobic A:ARG161>
0

> <Hydrophobic A:ASP168>
0

> <Hydrophobic A:ASN171>
0

> <Hydrophobic A:PHE172>
0

> <Hydrophobic A:ARG174>
0

> <Hydrophobic A:PHE175>
0

> <Hydrophobic A:LEU178>
0

> <Hydrophobic A:ILE179>
0

> <Hydrophobic A:VAL180>
0

> <Hydrophobic A:LEU181>
0

> <Hydrophobic A:PHE186>
0

> <Hydrophobic A:ILE187>
1

> <Hydrophobic A:PHE188>
0

> <Hydrophobic A:ILE189>
0

> <Hydrophobic A:PRO190>
0

> <Hydrophobic A:PHE191>
0

> <Hydrophobic A:TYR240>
0

> <Hydrophobic A:PHE243>
0

> <Hydrophobic A:PHE247>
0

> <Hydrophobic A:PHE248>
0

> <Hydrophobic A:VAL251>
0

> <Hydrophobic A:TRP252>
0

> <Hydrophobic A:SER254>
0

> <Hydrophobic A:LEU261>
0

> <Hydrophobic A:ILE262>
0

> <Hydrophobic A:ILE263>
0

> <Hydrophobic A:TYR272>
0

> <Hydrophobic A:PRO273>
0

> <HydrogenBond A:LYS6>
0

> <HydrogenBond A:ARG55>
0

> <HydrogenBond A:GLY64>
0

> <HydrogenBond A:SER65>
0

> <HydrogenBond A:TRP66>
0

> <HydrogenBond A:SER69>
0

> <HydrogenBond A:PRO73>
0

> <HydrogenBond A:ALA74>
0

> <HydrogenBond A:PHE76>
0

> <HydrogenBond A:ALA77>
0

> <HydrogenBond A:THR78>
0

> <HydrogenBond A:GLU79>
0

> <HydrogenBond A:PHE82>
0

> <HydrogenBond A:ARG83>
0

> <HydrogenBond A:LEU85>
0

> <HydrogenBond A:THR86>
0

> <HydrogenBond A:TRP89>
1

> <HydrogenBond A:THR90>
0

> <HydrogenBond A:ASN93>
1

> <HydrogenBond A:HIS94>
0

> <HydrogenBond A:SER96>
0

> <HydrogenBond A:TRP98>
0

> <HydrogenBond A:ASN144>
0

> <HydrogenBond A:HIS151>
0

> <HydrogenBond A:ILE152>
0

> <HydrogenBond A:ALA154>
0

> <HydrogenBond A:SER155>
0

> <HydrogenBond A:ILE156>
0

> <HydrogenBond A:GLY158>
0

> <HydrogenBond A:TYR159>
0

> <HydrogenBond A:ASN162>
0

> <HydrogenBond A:LYS163>
0

> <HydrogenBond A:SER167>
0

> <HydrogenBond A:ASP168>
0

> <HydrogenBond A:SER169>
0

> <HydrogenBond A:ASN171>
0

> <HydrogenBond A:PHE172>
0

> <HydrogenBond A:THR173>
0

> <HydrogenBond A:ARG174>
0

> <HydrogenBond A:PHE175>
0

> <HydrogenBond A:SER176>
0

> <HydrogenBond A:SER177>
0

> <HydrogenBond A:ILE179>
1

> <HydrogenBond A:VAL180>
1

> <HydrogenBond A:SER183>
1

> <HydrogenBond A:THR184>
0

> <HydrogenBond A:PHE186>
0

> <HydrogenBond A:ILE187>
0

> <HydrogenBond A:PRO190>
0

> <HydrogenBond A:TYR240>
0

> <HydrogenBond A:PHE243>
0

> <HydrogenBond A:SER244>
0

> <HydrogenBond A:PHE247>
0

> <HydrogenBond A:VAL251>
0

> <HydrogenBond A:SER254>
0

> <HydrogenBond A:GLU255>
0

> <HydrogenBond A:ARG256>
0

> <HydrogenBond A:LEU257>
0

> <HydrogenBond A:GLU258>
0

> <HydrogenBond A:GLU259>
0

> <HydrogenBond A:ILE262>
0

> <HydrogenBond A:SER265>
0

> <HydrogenBond A:GLN266>
0

> <HydrogenBond A:MET268>
0

> <HydrogenBond A:GLY269>
0

> <HydrogenBond A:PRO273>
0

> <Other A:SER69>
0

> <Other A:TRP89>
0

> <Other A:TYR159>
0

> <Other A:PHE172>
0

> <Other A:SER176>
0

> <Other A:SER265>
0

$$$$
9909740
  SciTegic09122300493D

 67 67  0  0  0  0            999 V2000
   13.9689    1.2929   -7.9252 O   0  0  0  1  0  0
   10.6298   -0.4037  -10.7494 O   0  0  0  1  0  0
   11.0600    4.1373  -10.0344 O   0  5  0  1  0  0
    9.6136    1.1355  -12.5777 O   0  0  0  1  0  0
   12.6421    0.2449   -9.6263 C   0  0  0  1  0  0
   13.7328   -0.1201  -10.6641 C   0  0  0  1  0  0
   12.4379   -0.9361   -8.6582 C   0  0  0  1  0  0
   13.1694    1.4479   -8.8011 C   0  0  0  1  0  0
   11.3308    0.5087  -10.4025 C   0  0  0  1  0  0
   12.7353    2.8168   -9.1376 C   0  0  0  1  0  0
   11.0393    1.9003  -10.8323 C   0  0  0  1  0  0
   11.5736    3.0221  -10.0135 C   0  0  0  1  0  0
   10.3379    2.1279  -11.9670 C   0  0  0  1  0  0
   14.0164    0.9410  -11.7018 C   0  0  0  1  0  0
   11.2141   -0.8585   -7.7749 C   0  0  0  1  0  0
   13.3954    3.9981   -8.4822 C   0  0  0  1  0  0
   10.4420    3.4457  -12.7022 C   0  0  1  1  0  0
   10.7639    3.2536  -14.1782 C   0  0  0  1  0  0
   15.1589    1.6330  -11.8696 C   0  0  0  1  0  0
   11.1593   -0.6130   -6.4530 C   0  0  0  1  0  0
    9.1558    4.2222  -12.5132 C   0  0  0  1  0  0
   14.6477    4.3829   -9.2211 C   0  0  0  1  0  0
   11.3054    4.5283  -14.8451 C   0  0  0  1  0  0
   15.2626    2.7176  -12.9126 C   0  0  0  1  0  0
   16.3213    1.6257  -10.9070 C   0  0  0  1  0  0
   12.3453   -0.2500   -5.5956 C   0  0  0  1  0  0
    9.9244   -0.9381   -5.6480 C   0  0  0  1  0  0
   14.7947    5.4301  -10.0507 C   0  0  0  1  0  0
   16.1220    5.7525  -10.6851 C   0  0  0  1  0  0
   13.6417    6.1679  -10.6804 C   0  0  0  1  0  0
    9.5872    0.3662  -12.0084 H   0  0
   13.4274   -1.0240  -11.1932 H   0  0
   14.6525   -0.3944  -10.1477 H   0  0
   12.3671   -1.8482   -9.2455 H   0  0
   13.3374   -1.0700   -8.0645 H   0  0
   13.2215    1.0929  -12.4097 H   0  0
   10.3088   -1.1465   -8.2768 H   0  0
   13.6385    3.7728   -7.4438 H   0  0
   12.7016    4.8400   -8.4552 H   0  0
   11.2612    4.0402  -12.2994 H   0  0
    9.8526    2.9157  -14.6713 H   0  0
   11.5045    2.4601  -14.2836 H   0  0
    9.0725    4.4087  -11.4474 H   0  0
    8.2787    3.6746  -12.8566 H   0  0
    9.1978    5.1845  -13.0093 H   0  0
   15.5053    3.7944   -8.9547 H   0  0
   12.2536    4.8197  -14.3951 H   0  0
   10.6161    5.3643  -14.7405 H   0  0
   11.4828    4.3883  -15.9103 H   0  0
   15.6832    3.6309  -12.4925 H   0  0
   14.2816    2.9662  -13.3200 H   0  0
   15.9014    2.3939  -13.7342 H   0  0
   16.0454    1.2093   -9.9390 H   0  0
   16.6894    2.6347  -10.7259 H   0  0
   17.1443    1.0378  -11.3124 H   0  0
   12.3051    0.8050   -5.3263 H   0  0
   13.2919   -0.4154   -6.1042 H   0  0
   12.3580   -0.8391   -4.6810 H   0  0
    9.2293   -1.5550   -6.2162 H   0  0
    9.4078   -0.0357   -5.3371 H   0  0
   10.1771   -1.4818   -4.7419 H   0  0
   16.0219    5.9299  -11.7527 H   0  0
   16.8133    4.9239  -10.5612 H   0  0
   16.5608    6.6368  -10.2266 H   0  0
   12.7310    5.5748  -10.6510 H   0  0
   13.8482    6.3964  -11.7240 H   0  0
   13.4342    7.0902  -10.1471 H   0  0
  1  8  2  0
  2  9  2  0
  3 12  1  0
  4 13  1  0
  5  6  1  0
  5  7  1  0
  5  8  1  0
  5  9  1  0
  6 14  1  0
  7 15  1  0
  8 10  1  0
  9 11  1  0
 10 12  2  0
 10 16  1  0
 11 12  1  0
 11 13  2  0
 13 17  1  0
 14 19  2  0
 15 20  2  0
 16 22  1  0
 17 18  1  0
 17 21  1  0
 18 23  1  0
 19 24  1  0
 19 25  1  0
 20 26  1  0
 20 27  1  0
 22 28  2  0
 28 29  1  0
 28 30  1  0
  4 31  1  0
  6 32  1  0
  6 33  1  0
  7 34  1  0
  7 35  1  0
 14 36  1  0
 15 37  1  0
 16 38  1  0
 16 39  1  0
 17 40  1  0
 18 41  1  0
 18 42  1  0
 21 43  1  0
 21 44  1  0
 21 45  1  0
 22 46  1  0
 23 47  1  0
 23 48  1  0
 23 49  1  0
 24 50  1  0
 24 51  1  0
 24 52  1  0
 25 53  1  0
 25 54  1  0
 25 55  1  0
 26 56  1  0
 26 57  1  0
 26 58  1  0
 27 59  1  0
 27 60  1  0
 27 61  1  0
 29 62  1  0
 29 63  1  0
 29 64  1  0
 30 65  1  0
 30 66  1  0
 30 67  1  0
M  CHG  1   3  -1
M  END
> <Name>
9909740

> <Binding Energy>
-55.7607

> <Ligand Energy>
129.176

> <Protein Energy>
-7801.1566

> <Complex Energy>
-7727.7414

> <Complex Entropy>
-31.4859

> <Protein Entropy>
-31.4717

> <Ligand Entropy>
-20.1292

> <Entropic Energy>
20.1149

> <AbsoluteEnergy>
69.8296

> <ConfNumber>
91

> <Ionization pH>
7.5

> <IonizationIndex>
1

> <MOL_NUMBER>
481

> <NumberOfIonizations>
1

> <NumberOfStereoisomers>
1

> <NumberOfTautomers>
3

> <PUBCHEM_ATOM_DEF_STEREO_COUNT>
0

> <PUBCHEM_ATOM_UDEF_STEREO_COUNT>
1

> <PUBCHEM_BOND_DEF_STEREO_COUNT>
0

> <PUBCHEM_BOND_UDEF_STEREO_COUNT>
0

> <PUBCHEM_CACTVS_TAUTO_COUNT>
19

> <PUBCHEM_COMPONENT_COUNT>
1

> <PUBCHEM_COMPOUND_CID>
9909740

> <PUBCHEM_CONFORMER_DIVERSEORDER>
1
129
44
156
25
102
149
42
89
83
61
77
20
36
53
106
70
80
55
58
29
90
119
15
151
6
82
121
115
64
95
76
27
105
104
117
46
52
69
128
98
91
43
135
148
56
112
136
66
81
157
146
71
126
22
37
118
144
150
60
86
110
139
101
155
92
48
103
78
47
100
145
125
14
154
13
85
137
114
51
133
131
93
99
130
49
142
45
50
127
134
23
33
143
120
67
74
109
152
113
65
68
40
26
12
63
158
153
7
116
108
123
32
107
54
75
72
140
97
31
96
79
9
30
124
34
39
138
88
73
94
35
84
10
21
38
62
16
87
19
111
18
41
141
24
28
11
132
3
147
8
59
57
5
2
17
122
4

> <PUBCHEM_CONFORMER_ID>
009735EC00000001

> <PUBCHEM_CONFORMER_RMSD>
1

> <PUBCHEM_COORDINATE_TYPE>
2
5
10

> <PUBCHEM_EFFECTIVE_ROTOR_COUNT>
9.2

> <PUBCHEM_FEATURE_SELFOVERLAP>
50.748

> <PUBCHEM_HEAVY_ATOM_COUNT>
30

> <PUBCHEM_ISOTOPIC_ATOM_COUNT>
0

> <PUBCHEM_MMFF94_ENERGY>
61.042

> <PUBCHEM_MMFF94_PARTIAL_CHARGES>
32
1 -0.53
10 -0.14
11 0.03
12 0.08
13 0.49
14 -0.29
15 -0.29
16 0.28
17 0.06
19 -0.28
2 -0.57
20 -0.28
22 -0.29
24 0.14
25 0.14
26 0.14
27 0.14
28 -0.28
29 0.14
3 -0.53
30 0.14
35 0.15
36 0.15
4 -0.57
40 0.45
46 0.15
47 0.45
5 0.2
6 0.14
7 0.14
8 -0.06
9 0.49

> <PUBCHEM_PHARMACOPHORE_FEATURES>
10
1 1 donor
1 2 acceptor
1 21 hydrophobe
1 23 hydrophobe
1 3 donor
1 4 acceptor
3 19 24 25 hydrophobe
3 20 26 27 hydrophobe
3 28 29 30 hydrophobe
6 5 8 9 10 11 12 rings

> <PUBCHEM_SHAPE_FINGERPRINT>
10032420 55 17916859248788169315
11578080 2 17899151424432287245
12156800 1 16227461637911348595
12592029 89 18194651857719660198
12788726 201 17320107112389127102
133893 2 18127958720589001702
13583140 156 18127701439516367441
15420108 30 17467106315143272941
15775530 1 18042402422333706839
17980427 23 17607828380302351619
17980427 26 18200326398559932615
1813 80 11674875615217721418
18915476 22 18264766571492563899
20600515 1 17401762424634911759
21033648 29 18044683948486921601
21120745 212 17112149979746959940
229495 10 18268714913748281205
23419403 2 17973166127835270483
244849 19 17972598792952231677
3759504 43 18056493952523645208
394222 165 18057581210493830902
4058900 60 18196683798073138952
469060 322 18337948017376199165
53917941 68 16558458764292460465
59755656 520 18202009871247664740
9981440 41 18190435264670581012

> <PUBCHEM_SHAPE_MULTIPOLES>
593.91
8.17
4.41
3.11
1.36
6.06
-0.61
-6.89
4.03
-3.73
-0.74
3.09
-1.18
0.86

> <PUBCHEM_SHAPE_SELFOVERLAP>
1206.328

> <PUBCHEM_SHAPE_VOLUME>
344.4

> <RelativeEnergy>
10.2452

> <StereoisomerIndex>
1

> <TautomerIndex>
3

> <POSE_NUMBER>
7

> <LibDockScore>
107.0459

> <HotSpots>
9.01,2.67,-14.05,A,21,21
11.21,4.87,-14.65,A,18,23
16.61,6.47,-11.46,A,30,29

> <-In-Situ Starting Energy>
-1725.19375

> <-In-Situ Final Energy>
-45.4004589

> <In-Situ Gradient>
0.0009272420632

> <Favorable Total>
17

> <Unfavorable Total>
0

> <Charge Total>
2

> <Hydrophobic Total>
14

> <HydrogenBond Total>
1

> <Other Total>
0

> <Favorable A:LYS6>
0

> <Favorable A:ARG55>
0

> <Favorable A:LEU58>
0

> <Favorable A:LEU61>
0

> <Favorable A:ILE62>
0

> <Favorable A:GLY64>
0

> <Favorable A:SER65>
0

> <Favorable A:TRP66>
0

> <Favorable A:SER69>
0

> <Favorable A:VAL70>
0

> <Favorable A:PRO73>
0

> <Favorable A:ALA74>
0

> <Favorable A:PHE76>
1

> <Favorable A:ALA77>
0

> <Favorable A:THR78>
0

> <Favorable A:GLU79>
0

> <Favorable A:PHE82>
3

> <Favorable A:ARG83>
0

> <Favorable A:LEU85>
2

> <Favorable A:THR86>
0

> <Favorable A:TRP89>
5

> <Favorable A:THR90>
0

> <Favorable A:ASN93>
0

> <Favorable A:HIS94>
0

> <Favorable A:SER96>
0

> <Favorable A:VAL97>
0

> <Favorable A:TRP98>
0

> <Favorable A:PHE140>
0

> <Favorable A:LEU141>
0

> <Favorable A:ASN144>
0

> <Favorable A:ILE148>
0

> <Favorable A:ILE150>
0

> <Favorable A:HIS151>
0

> <Favorable A:ILE152>
0

> <Favorable A:ALA154>
0

> <Favorable A:SER155>
0

> <Favorable A:ILE156>
0

> <Favorable A:GLY158>
0

> <Favorable A:TYR159>
0

> <Favorable A:ARG160>
0

> <Favorable A:ARG161>
0

> <Favorable A:ASN162>
0

> <Favorable A:LYS163>
0

> <Favorable A:SER167>
0

> <Favorable A:ASP168>
0

> <Favorable A:SER169>
0

> <Favorable A:ASN171>
0

> <Favorable A:PHE172>
0

> <Favorable A:THR173>
0

> <Favorable A:ARG174>
0

> <Favorable A:PHE175>
0

> <Favorable A:SER176>
0

> <Favorable A:SER177>
0

> <Favorable A:LEU178>
0

> <Favorable A:ILE179>
2

> <Favorable A:VAL180>
1

> <Favorable A:LEU181>
0

> <Favorable A:SER183>
0

> <Favorable A:THR184>
0

> <Favorable A:PHE186>
0

> <Favorable A:ILE187>
0

> <Favorable A:PHE188>
0

> <Favorable A:ILE189>
0

> <Favorable A:PRO190>
0

> <Favorable A:PHE191>
0

> <Favorable A:TYR240>
0

> <Favorable A:PHE243>
0

> <Favorable A:SER244>
0

> <Favorable A:PHE247>
2

> <Favorable A:PHE248>
0

> <Favorable A:VAL251>
0

> <Favorable A:TRP252>
0

> <Favorable A:SER254>
0

> <Favorable A:GLU255>
0

> <Favorable A:ARG256>
0

> <Favorable A:LEU257>
0

> <Favorable A:GLU258>
0

> <Favorable A:GLU259>
0

> <Favorable A:LEU261>
0

> <Favorable A:ILE262>
0

> <Favorable A:ILE263>
0

> <Favorable A:SER265>
0

> <Favorable A:GLN266>
1

> <Favorable A:MET268>
0

> <Favorable A:GLY269>
0

> <Favorable A:TYR272>
0

> <Favorable A:PRO273>
0

> <Unfavorable A:ARG55>
0

> <Unfavorable A:PRO73>
0

> <Unfavorable A:PHE76>
0

> <Unfavorable A:GLU79>
0

> <Unfavorable A:ARG83>
0

> <Unfavorable A:THR86>
0

> <Unfavorable A:TRP89>
0

> <Unfavorable A:THR90>
0

> <Unfavorable A:ASN93>
0

> <Unfavorable A:TRP98>
0

> <Unfavorable A:ASN144>
0

> <Unfavorable A:SER155>
0

> <Unfavorable A:GLY158>
0

> <Unfavorable A:TYR159>
0

> <Unfavorable A:ASN162>
0

> <Unfavorable A:ASP168>
0

> <Unfavorable A:ASN171>
0

> <Unfavorable A:THR173>
0

> <Unfavorable A:ARG174>
0

> <Unfavorable A:SER183>
0

> <Unfavorable A:THR184>
0

> <Unfavorable A:PHE186>
0

> <Unfavorable A:SER244>
0

> <Unfavorable A:SER254>
0

> <Unfavorable A:GLU255>
0

> <Unfavorable A:SER265>
0

> <Unfavorable A:GLN266>
0

> <Unfavorable A:GLY269>
0

> <Charge A:ARG55>
0

> <Charge A:PHE76>
0

> <Charge A:GLU79>
0

> <Charge A:PHE82>
0

> <Charge A:ARG83>
0

> <Charge A:TRP89>
2

> <Charge A:HIS94>
0

> <Charge A:TRP98>
0

> <Charge A:TYR159>
0

> <Charge A:ARG161>
0

> <Charge A:LYS163>
0

> <Charge A:ASP168>
0

> <Charge A:PHE172>
0

> <Charge A:ARG174>
0

> <Charge A:PHE175>
0

> <Charge A:PHE188>
0

> <Charge A:PHE247>
0

> <Charge A:PHE248>
0

> <Hydrophobic A:LEU58>
0

> <Hydrophobic A:LEU61>
0

> <Hydrophobic A:ILE62>
0

> <Hydrophobic A:TRP66>
0

> <Hydrophobic A:VAL70>
0

> <Hydrophobic A:PRO73>
0

> <Hydrophobic A:ALA74>
0

> <Hydrophobic A:PHE76>
1

> <Hydrophobic A:ALA77>
0

> <Hydrophobic A:THR78>
0

> <Hydrophobic A:PHE82>
3

> <Hydrophobic A:ARG83>
0

> <Hydrophobic A:LEU85>
2

> <Hydrophobic A:TRP89>
3

> <Hydrophobic A:THR90>
0

> <Hydrophobic A:ASN93>
0

> <Hydrophobic A:HIS94>
0

> <Hydrophobic A:VAL97>
0

> <Hydrophobic A:TRP98>
0

> <Hydrophobic A:PHE140>
0

> <Hydrophobic A:LEU141>
0

> <Hydrophobic A:ILE148>
0

> <Hydrophobic A:ILE150>
0

> <Hydrophobic A:HIS151>
0

> <Hydrophobic A:ILE152>
0

> <Hydrophobic A:ALA154>
0

> <Hydrophobic A:SER155>
0

> <Hydrophobic A:ILE156>
0

> <Hydrophobic A:GLY158>
0

> <Hydrophobic A:TYR159>
0

> <Hydrophobic A:ARG160>
0

> <Hydrophobic A:ARG161>
0

> <Hydrophobic A:ASP168>
0

> <Hydrophobic A:ASN171>
0

> <Hydrophobic A:PHE172>
0

> <Hydrophobic A:ARG174>
0

> <Hydrophobic A:PHE175>
0

> <Hydrophobic A:LEU178>
0

> <Hydrophobic A:ILE179>
2

> <Hydrophobic A:VAL180>
1

> <Hydrophobic A:LEU181>
0

> <Hydrophobic A:PHE186>
0

> <Hydrophobic A:ILE187>
0

> <Hydrophobic A:PHE188>
0

> <Hydrophobic A:ILE189>
0

> <Hydrophobic A:PRO190>
0

> <Hydrophobic A:PHE191>
0

> <Hydrophobic A:TYR240>
0

> <Hydrophobic A:PHE243>
0

> <Hydrophobic A:PHE247>
2

> <Hydrophobic A:PHE248>
0

> <Hydrophobic A:VAL251>
0

> <Hydrophobic A:TRP252>
0

> <Hydrophobic A:SER254>
0

> <Hydrophobic A:LEU261>
0

> <Hydrophobic A:ILE262>
0

> <Hydrophobic A:ILE263>
0

> <Hydrophobic A:TYR272>
0

> <Hydrophobic A:PRO273>
0

> <HydrogenBond A:LYS6>
0

> <HydrogenBond A:ARG55>
0

> <HydrogenBond A:GLY64>
0

> <HydrogenBond A:SER65>
0

> <HydrogenBond A:TRP66>
0

> <HydrogenBond A:SER69>
0

> <HydrogenBond A:PRO73>
0

> <HydrogenBond A:ALA74>
0

> <HydrogenBond A:PHE76>
0

> <HydrogenBond A:ALA77>
0

> <HydrogenBond A:THR78>
0

> <HydrogenBond A:GLU79>
0

> <HydrogenBond A:PHE82>
0

> <HydrogenBond A:ARG83>
0

> <HydrogenBond A:LEU85>
0

> <HydrogenBond A:THR86>
0

> <HydrogenBond A:TRP89>
0

> <HydrogenBond A:THR90>
0

> <HydrogenBond A:ASN93>
0

> <HydrogenBond A:HIS94>
0

> <HydrogenBond A:SER96>
0

> <HydrogenBond A:TRP98>
0

> <HydrogenBond A:ASN144>
0

> <HydrogenBond A:HIS151>
0

> <HydrogenBond A:ILE152>
0

> <HydrogenBond A:ALA154>
0

> <HydrogenBond A:SER155>
0

> <HydrogenBond A:ILE156>
0

> <HydrogenBond A:GLY158>
0

> <HydrogenBond A:TYR159>
0

> <HydrogenBond A:ASN162>
0

> <HydrogenBond A:LYS163>
0

> <HydrogenBond A:SER167>
0

> <HydrogenBond A:ASP168>
0

> <HydrogenBond A:SER169>
0

> <HydrogenBond A:ASN171>
0

> <HydrogenBond A:PHE172>
0

> <HydrogenBond A:THR173>
0

> <HydrogenBond A:ARG174>
0

> <HydrogenBond A:PHE175>
0

> <HydrogenBond A:SER176>
0

> <HydrogenBond A:SER177>
0

> <HydrogenBond A:ILE179>
0

> <HydrogenBond A:VAL180>
0

> <HydrogenBond A:SER183>
0

> <HydrogenBond A:THR184>
0

> <HydrogenBond A:PHE186>
0

> <HydrogenBond A:ILE187>
0

> <HydrogenBond A:PRO190>
0

> <HydrogenBond A:TYR240>
0

> <HydrogenBond A:PHE243>
0

> <HydrogenBond A:SER244>
0

> <HydrogenBond A:PHE247>
0

> <HydrogenBond A:VAL251>
0

> <HydrogenBond A:SER254>
0

> <HydrogenBond A:GLU255>
0

> <HydrogenBond A:ARG256>
0

> <HydrogenBond A:LEU257>
0

> <HydrogenBond A:GLU258>
0

> <HydrogenBond A:GLU259>
0

> <HydrogenBond A:ILE262>
0

> <HydrogenBond A:SER265>
0

> <HydrogenBond A:GLN266>
1

> <HydrogenBond A:MET268>
0

> <HydrogenBond A:GLY269>
0

> <HydrogenBond A:PRO273>
0

> <Other A:SER69>
0

> <Other A:TRP89>
0

> <Other A:TYR159>
0

> <Other A:PHE172>
0

> <Other A:SER176>
0

> <Other A:SER265>
0

$$$$
9929676
  SciTegic09122300493D

 65 64  0  0  0  0            999 V2000
    7.3719    7.6501   -3.0160 O   0  0  0  1  0  0
    6.1592    9.3806   -1.9078 O   0  0  0  1  0  0
    9.2553    8.4756   -6.5343 O   0  0  0  1  0  0
    5.8359    8.5693    0.1469 O   0  0  0  1  0  0
   12.8835    2.9514   -6.4913 C   0  0  0  1  0  0
   12.2021    1.7430   -5.8234 C   0  0  0  1  0  0
   11.9249    4.1145   -6.7813 C   0  0  0  1  0  0
   12.0379    0.5360   -6.7542 C   0  0  0  1  0  0
   11.4440    4.8128   -5.4976 C   0  0  0  1  0  0
    9.7187    1.4353  -11.7290 C   0  0  0  1  0  0
    9.9586    2.3252  -12.9538 C   0  0  0  1  0  0
   10.6304    0.2070  -11.7037 C   0  0  0  1  0  0
    9.0238    3.5403  -12.9855 C   0  0  0  1  0  0
   13.3696   -0.0098   -7.1998 C   0  0  0  1  0  0
   10.8052    6.1563   -5.7282 C   0  0  0  1  0  0
   12.9991   -0.3476   -9.7338 C   0  0  0  1  0  0
   10.5451   -0.5311  -10.3947 C   0  0  0  1  0  0
   13.7918   -0.2612   -8.4532 C   0  0  0  1  0  0
    8.9628    8.9211   -4.2271 C   0  0  0  1  0  0
    7.5216    8.8687   -3.7127 C   0  0  2  1  0  0
    9.6387    6.6036   -5.2149 C   0  0  0  1  0  0
   11.5742   -0.8113   -9.5737 C   0  0  0  1  0  0
    7.5971    3.1804  -13.4191 C   0  0  0  1  0  0
    9.2309    8.0131   -5.4373 C   0  0  0  1  0  0
    7.1671    9.9875   -2.7205 C   0  0  0  1  0  0
    6.1357    9.4943   -0.5895 C   0  0  0  1  0  0
    6.4574   10.8668   -0.0419 C   0  0  0  1  0  0
    6.6804    7.7503   -2.3525 H   0  0
   13.3655    2.6481   -7.4212 H   0  0
   13.6925    3.3103   -5.8533 H   0  0
   11.2253    2.0244   -5.4341 H   0  0
   12.7913    1.4363   -4.9582 H   0  0
   11.0964    3.7605   -7.3901 H   0  0
   12.4570    4.8421   -7.3958 H   0  0
   11.4834   -0.2540   -6.2469 H   0  0
   11.4438    0.8421   -7.6142 H   0  0
   12.3065    4.9680   -4.8481 H   0  0
   10.7613    4.1697   -4.9433 H   0  0
    9.8784    2.0238  -10.8243 H   0  0
    8.6814    1.1018  -11.7082 H   0  0
   10.9913    2.6752  -12.9332 H   0  0
    9.8517    1.7477  -13.8727 H   0  0
   10.3527   -0.4708  -12.5098 H   0  0
   11.6576    0.5068  -11.9046 H   0  0
    9.4314    4.2812  -13.6724 H   0  0
    9.0113    4.0214  -12.0075 H   0  0
   14.0772   -0.1289   -6.3992 H   0  0
   11.3482    6.7795   -6.4197 H   0  0
   13.0607    0.5946  -10.2766 H   0  0
   13.4883   -1.0907  -10.3604 H   0  0
    9.5526   -0.8393  -10.1191 H   0  0
   14.8153   -0.5685   -8.5742 H   0  0
    9.6624    8.6757   -3.4277 H   0  0
    9.1991    9.9259   -4.5573 H   0  0
    6.8104    8.8811   -4.5442 H   0  0
    9.0116    5.9744   -4.6146 H   0  0
   11.3767   -1.3373   -8.6569 H   0  0
    7.1359    2.4658  -12.7403 H   0  0
    7.5951    2.7334  -14.4128 H   0  0
    6.9654    4.0686  -13.4495 H   0  0
    8.0364   10.2717   -2.1244 H   0  0
    6.7577   10.8642   -3.2225 H   0  0
    5.8860   11.6244   -0.5679 H   0  0
    7.5043   11.0526   -0.1890 H   0  0
    6.2466   10.8964    1.0265 H   0  0
  1 20  1  0
  2 25  1  0
  2 26  1  0
  3 24  2  0
  4 26  2  0
  5  6  1  0
  5  7  1  0
  6  8  1  0
  7  9  1  0
  8 14  1  0
  9 15  1  0
 10 11  1  0
 10 12  1  0
 11 13  1  0
 12 17  1  0
 13 23  1  0
 14 18  2  0
 15 21  2  0
 16 18  1  0
 16 22  1  0
 17 22  2  0
 19 20  1  0
 19 24  1  0
 20 25  1  0
 21 24  1  0
 26 27  1  0
  1 28  1  0
  5 29  1  0
  5 30  1  0
  6 31  1  0
  6 32  1  0
  7 33  1  0
  7 34  1  0
  8 35  1  0
  8 36  1  0
  9 37  1  0
  9 38  1  0
 10 39  1  0
 10 40  1  0
 11 41  1  0
 11 42  1  0
 12 43  1  0
 12 44  1  0
 13 45  1  0
 13 46  1  0
 14 47  1  0
 15 48  1  0
 16 49  1  0
 16 50  1  0
 17 51  1  0
 18 52  1  0
 19 53  1  0
 19 54  1  0
 20 55  1  0
 21 56  1  0
 22 57  1  0
 23 58  1  0
 23 59  1  0
 23 60  1  0
 25 61  1  0
 25 62  1  0
 27 63  1  0
 27 64  1  0
 27 65  1  0
M  END
> <Name>
9929676

> <Binding Energy>
-41.0306

> <Ligand Energy>
29.5479

> <Protein Energy>
-7801.1566

> <Complex Energy>
-7812.6393

> <Complex Entropy>
-31.4836

> <Protein Entropy>
-31.4717

> <Ligand Entropy>
-20.6425

> <Entropic Energy>
20.6306

> <AbsoluteEnergy>
41.8226

> <ConfNumber>
122

> <IonizationIndex>
1

> <MOL_NUMBER>
483

> <NumberOfIonizations>
1

> <NumberOfStereoisomers>
2

> <NumberOfTautomers>
1

> <PUBCHEM_ATOM_DEF_STEREO_COUNT>
0

> <PUBCHEM_ATOM_UDEF_STEREO_COUNT>
1

> <PUBCHEM_BONDANNOTATIONS>
20  1  3

> <PUBCHEM_BOND_DEF_STEREO_COUNT>
3

> <PUBCHEM_BOND_UDEF_STEREO_COUNT>
0

> <PUBCHEM_CACTVS_COMPLEXITY>
463

> <PUBCHEM_CACTVS_HBOND_ACCEPTOR>
4

> <PUBCHEM_CACTVS_HBOND_DONOR>
1

> <PUBCHEM_CACTVS_ROTATABLE_BOND>
18

> <PUBCHEM_CACTVS_SUBSKEYS>
AAADcfB4OAAAAAAAAAAAAAAAAAAAAAAAAAAAAAAAAAAAAAAAAAAAGgAACAAACBSggAICCAAABgCIAKDSCAAAAAAgAAAICAEAAEgBEBYAAQACQAAEoAALAYOCgAAAAAAAAAAAAAAAAAAAAAAAAAAAAAAAAA==

> <PUBCHEM_CACTVS_TAUTO_COUNT>
-1

> <PUBCHEM_CACTVS_TPSA>
63.6

> <PUBCHEM_COMPONENT_COUNT>
1

> <PUBCHEM_COMPOUND_CANONICALIZED>
1

> <PUBCHEM_COMPOUND_CID>
9929676

> <PUBCHEM_COORDINATE_TYPE>
1
5
255

> <PUBCHEM_EXACT_MASS>
378.27700969

> <PUBCHEM_HEAVY_ATOM_COUNT>
27

> <PUBCHEM_ISOTOPIC_ATOM_COUNT>
0

> <PUBCHEM_IUPAC_CAS_NAME>
acetic acid [(5E,12Z,15Z)-2-hydroxy-4-oxoheneicosa-5,12,15-trienyl] ester

> <PUBCHEM_IUPAC_INCHI>
InChI=1S/C23H38O4/c1-3-4-5-6-7-8-9-10-11-12-13-14-15-16-17-18-22(25)19-23(26)20-27-21(2)24/h7-8,10-11,17-18,23,26H,3-6,9,12-16,19-20H2,1-2H3/b8-7-,11-10-,18-17+

> <PUBCHEM_IUPAC_INCHIKEY>
YLWJMUPPJKELEC-GQQAEKEGSA-N

> <PUBCHEM_IUPAC_NAME>
[(5E,12Z,15Z)-2-hydroxy-4-oxohenicosa-5,12,15-trienyl] acetate

> <PUBCHEM_IUPAC_NAME_MARKUP>
[(5<I>E</I>,12<I>Z</I>,15<I>Z</I>)-2-hydroxy-4-oxohenicosa-5,12,15-trienyl] acetate

> <PUBCHEM_IUPAC_OPENEYE_NAME>
[(5E,12Z,15Z)-2-hydroxy-4-oxo-henicosa-5,12,15-trienyl] acetate

> <PUBCHEM_IUPAC_SYSTEMATIC_NAME>
[(5E,12Z,15Z)-2-oxidanyl-4-oxidanylidene-henicosa-5,12,15-trienyl] ethanoate

> <PUBCHEM_IUPAC_TRADITIONAL_NAME>
acetic acid [(5E,12Z,15Z)-2-hydroxy-4-keto-heneicosa-5,12,15-trienyl] ester

> <PUBCHEM_MOLECULAR_FORMULA>
C23H38O4

> <PUBCHEM_MOLECULAR_WEIGHT>
378.5

> <PUBCHEM_MONOISOTOPIC_WEIGHT>
378.27700969

> <PUBCHEM_OPENEYE_CAN_SMILES>
CCCCCC=CCC=CCCCCCC=CC(=O)CC(COC(=O)C)O

> <PUBCHEM_OPENEYE_ISO_SMILES>
CCCCC/C=C\C/C=C\CCCCC/C=C/C(=O)CC(COC(=O)C)O

> <PUBCHEM_TOTAL_CHARGE>
0

> <PUBCHEM_XLOGP3_AA>
5.8

> <RelativeEnergy>
8.20571

> <StereoisomerIndex>
2

> <TautomerIndex>
1

> <POSE_NUMBER>
3

> <LibDockScore>
131.0812

> <HotSpots>
8.81,8.07,-6.66,P,48,3
7.21,2.27,-14.26,A,20,23
6.61,11.87,-1.46,A,53,27

> <-In-Situ Starting Energy>
-1315.92234

> <-In-Situ Final Energy>
8.94753638

> <In-Situ Gradient>
0.000818805954

> <Favorable Total>
9

> <Unfavorable Total>
0

> <Charge Total>
0

> <Hydrophobic Total>
3

> <HydrogenBond Total>
6

> <Other Total>
0

> <Favorable A:LYS6>
0

> <Favorable A:ARG55>
0

> <Favorable A:LEU58>
0

> <Favorable A:LEU61>
1

> <Favorable A:ILE62>
0

> <Favorable A:GLY64>
0

> <Favorable A:SER65>
0

> <Favorable A:TRP66>
0

> <Favorable A:SER69>
0

> <Favorable A:VAL70>
0

> <Favorable A:PRO73>
0

> <Favorable A:ALA74>
0

> <Favorable A:PHE76>
0

> <Favorable A:ALA77>
0

> <Favorable A:THR78>
0

> <Favorable A:GLU79>
0

> <Favorable A:PHE82>
0

> <Favorable A:ARG83>
0

> <Favorable A:LEU85>
1

> <Favorable A:THR86>
0

> <Favorable A:TRP89>
2

> <Favorable A:THR90>
3

> <Favorable A:ASN93>
0

> <Favorable A:HIS94>
1

> <Favorable A:SER96>
0

> <Favorable A:VAL97>
0

> <Favorable A:TRP98>
0

> <Favorable A:PHE140>
0

> <Favorable A:LEU141>
0

> <Favorable A:ASN144>
0

> <Favorable A:ILE148>
0

> <Favorable A:ILE150>
0

> <Favorable A:HIS151>
0

> <Favorable A:ILE152>
0

> <Favorable A:ALA154>
0

> <Favorable A:SER155>
0

> <Favorable A:ILE156>
0

> <Favorable A:GLY158>
0

> <Favorable A:TYR159>
0

> <Favorable A:ARG160>
0

> <Favorable A:ARG161>
0

> <Favorable A:ASN162>
0

> <Favorable A:LYS163>
0

> <Favorable A:SER167>
0

> <Favorable A:ASP168>
0

> <Favorable A:SER169>
0

> <Favorable A:ASN171>
0

> <Favorable A:PHE172>
0

> <Favorable A:THR173>
0

> <Favorable A:ARG174>
0

> <Favorable A:PHE175>
0

> <Favorable A:SER176>
0

> <Favorable A:SER177>
0

> <Favorable A:LEU178>
0

> <Favorable A:ILE179>
0

> <Favorable A:VAL180>
0

> <Favorable A:LEU181>
0

> <Favorable A:SER183>
1

> <Favorable A:THR184>
0

> <Favorable A:PHE186>
0

> <Favorable A:ILE187>
0

> <Favorable A:PHE188>
0

> <Favorable A:ILE189>
0

> <Favorable A:PRO190>
0

> <Favorable A:PHE191>
0

> <Favorable A:TYR240>
0

> <Favorable A:PHE243>
0

> <Favorable A:SER244>
0

> <Favorable A:PHE247>
0

> <Favorable A:PHE248>
0

> <Favorable A:VAL251>
0

> <Favorable A:TRP252>
0

> <Favorable A:SER254>
0

> <Favorable A:GLU255>
0

> <Favorable A:ARG256>
0

> <Favorable A:LEU257>
0

> <Favorable A:GLU258>
0

> <Favorable A:GLU259>
0

> <Favorable A:LEU261>
0

> <Favorable A:ILE262>
0

> <Favorable A:ILE263>
0

> <Favorable A:SER265>
0

> <Favorable A:GLN266>
0

> <Favorable A:MET268>
0

> <Favorable A:GLY269>
0

> <Favorable A:TYR272>
0

> <Favorable A:PRO273>
0

> <Unfavorable A:ARG55>
0

> <Unfavorable A:PRO73>
0

> <Unfavorable A:PHE76>
0

> <Unfavorable A:GLU79>
0

> <Unfavorable A:ARG83>
0

> <Unfavorable A:THR86>
0

> <Unfavorable A:TRP89>
0

> <Unfavorable A:THR90>
0

> <Unfavorable A:ASN93>
0

> <Unfavorable A:TRP98>
0

> <Unfavorable A:ASN144>
0

> <Unfavorable A:SER155>
0

> <Unfavorable A:GLY158>
0

> <Unfavorable A:TYR159>
0

> <Unfavorable A:ASN162>
0

> <Unfavorable A:ASP168>
0

> <Unfavorable A:ASN171>
0

> <Unfavorable A:THR173>
0

> <Unfavorable A:ARG174>
0

> <Unfavorable A:SER183>
0

> <Unfavorable A:THR184>
0

> <Unfavorable A:PHE186>
0

> <Unfavorable A:SER244>
0

> <Unfavorable A:SER254>
0

> <Unfavorable A:GLU255>
0

> <Unfavorable A:SER265>
0

> <Unfavorable A:GLN266>
0

> <Unfavorable A:GLY269>
0

> <Charge A:ARG55>
0

> <Charge A:PHE76>
0

> <Charge A:GLU79>
0

> <Charge A:PHE82>
0

> <Charge A:ARG83>
0

> <Charge A:TRP89>
0

> <Charge A:HIS94>
0

> <Charge A:TRP98>
0

> <Charge A:TYR159>
0

> <Charge A:ARG161>
0

> <Charge A:LYS163>
0

> <Charge A:ASP168>
0

> <Charge A:PHE172>
0

> <Charge A:ARG174>
0

> <Charge A:PHE175>
0

> <Charge A:PHE188>
0

> <Charge A:PHE247>
0

> <Charge A:PHE248>
0

> <Hydrophobic A:LEU58>
0

> <Hydrophobic A:LEU61>
1

> <Hydrophobic A:ILE62>
0

> <Hydrophobic A:TRP66>
0

> <Hydrophobic A:VAL70>
0

> <Hydrophobic A:PRO73>
0

> <Hydrophobic A:ALA74>
0

> <Hydrophobic A:PHE76>
0

> <Hydrophobic A:ALA77>
0

> <Hydrophobic A:THR78>
0

> <Hydrophobic A:PHE82>
0

> <Hydrophobic A:ARG83>
0

> <Hydrophobic A:LEU85>
1

> <Hydrophobic A:TRP89>
1

> <Hydrophobic A:THR90>
0

> <Hydrophobic A:ASN93>
0

> <Hydrophobic A:HIS94>
0

> <Hydrophobic A:VAL97>
0

> <Hydrophobic A:TRP98>
0

> <Hydrophobic A:PHE140>
0

> <Hydrophobic A:LEU141>
0

> <Hydrophobic A:ILE148>
0

> <Hydrophobic A:ILE150>
0

> <Hydrophobic A:HIS151>
0

> <Hydrophobic A:ILE152>
0

> <Hydrophobic A:ALA154>
0

> <Hydrophobic A:SER155>
0

> <Hydrophobic A:ILE156>
0

> <Hydrophobic A:GLY158>
0

> <Hydrophobic A:TYR159>
0

> <Hydrophobic A:ARG160>
0

> <Hydrophobic A:ARG161>
0

> <Hydrophobic A:ASP168>
0

> <Hydrophobic A:ASN171>
0

> <Hydrophobic A:PHE172>
0

> <Hydrophobic A:ARG174>
0

> <Hydrophobic A:PHE175>
0

> <Hydrophobic A:LEU178>
0

> <Hydrophobic A:ILE179>
0

> <Hydrophobic A:VAL180>
0

> <Hydrophobic A:LEU181>
0

> <Hydrophobic A:PHE186>
0

> <Hydrophobic A:ILE187>
0

> <Hydrophobic A:PHE188>
0

> <Hydrophobic A:ILE189>
0

> <Hydrophobic A:PRO190>
0

> <Hydrophobic A:PHE191>
0

> <Hydrophobic A:TYR240>
0

> <Hydrophobic A:PHE243>
0

> <Hydrophobic A:PHE247>
0

> <Hydrophobic A:PHE248>
0

> <Hydrophobic A:VAL251>
0

> <Hydrophobic A:TRP252>
0

> <Hydrophobic A:SER254>
0

> <Hydrophobic A:LEU261>
0

> <Hydrophobic A:ILE262>
0

> <Hydrophobic A:ILE263>
0

> <Hydrophobic A:TYR272>
0

> <Hydrophobic A:PRO273>
0

> <HydrogenBond A:LYS6>
0

> <HydrogenBond A:ARG55>
0

> <HydrogenBond A:GLY64>
0

> <HydrogenBond A:SER65>
0

> <HydrogenBond A:TRP66>
0

> <HydrogenBond A:SER69>
0

> <HydrogenBond A:PRO73>
0

> <HydrogenBond A:ALA74>
0

> <HydrogenBond A:PHE76>
0

> <HydrogenBond A:ALA77>
0

> <HydrogenBond A:THR78>
0

> <HydrogenBond A:GLU79>
0

> <HydrogenBond A:PHE82>
0

> <HydrogenBond A:ARG83>
0

> <HydrogenBond A:LEU85>
0

> <HydrogenBond A:THR86>
0

> <HydrogenBond A:TRP89>
1

> <HydrogenBond A:THR90>
3

> <HydrogenBond A:ASN93>
0

> <HydrogenBond A:HIS94>
1

> <HydrogenBond A:SER96>
0

> <HydrogenBond A:TRP98>
0

> <HydrogenBond A:ASN144>
0

> <HydrogenBond A:HIS151>
0

> <HydrogenBond A:ILE152>
0

> <HydrogenBond A:ALA154>
0

> <HydrogenBond A:SER155>
0

> <HydrogenBond A:ILE156>
0

> <HydrogenBond A:GLY158>
0

> <HydrogenBond A:TYR159>
0

> <HydrogenBond A:ASN162>
0

> <HydrogenBond A:LYS163>
0

> <HydrogenBond A:SER167>
0

> <HydrogenBond A:ASP168>
0

> <HydrogenBond A:SER169>
0

> <HydrogenBond A:ASN171>
0

> <HydrogenBond A:PHE172>
0

> <HydrogenBond A:THR173>
0

> <HydrogenBond A:ARG174>
0

> <HydrogenBond A:PHE175>
0

> <HydrogenBond A:SER176>
0

> <HydrogenBond A:SER177>
0

> <HydrogenBond A:ILE179>
0

> <HydrogenBond A:VAL180>
0

> <HydrogenBond A:SER183>
1

> <HydrogenBond A:THR184>
0

> <HydrogenBond A:PHE186>
0

> <HydrogenBond A:ILE187>
0

> <HydrogenBond A:PRO190>
0

> <HydrogenBond A:TYR240>
0

> <HydrogenBond A:PHE243>
0

> <HydrogenBond A:SER244>
0

> <HydrogenBond A:PHE247>
0

> <HydrogenBond A:VAL251>
0

> <HydrogenBond A:SER254>
0

> <HydrogenBond A:GLU255>
0

> <HydrogenBond A:ARG256>
0

> <HydrogenBond A:LEU257>
0

> <HydrogenBond A:GLU258>
0

> <HydrogenBond A:GLU259>
0

> <HydrogenBond A:ILE262>
0

> <HydrogenBond A:SER265>
0

> <HydrogenBond A:GLN266>
0

> <HydrogenBond A:MET268>
0

> <HydrogenBond A:GLY269>
0

> <HydrogenBond A:PRO273>
0

> <Other A:SER69>
0

> <Other A:TRP89>
0

> <Other A:TYR159>
0

> <Other A:PHE172>
0

> <Other A:SER176>
0

> <Other A:SER265>
0

$$$$
10245047
  SciTegic09122300493D

 37 38  0  0  0  0            999 V2000
    7.9263   10.1791   -4.2226 O   0  0  0  1  0  0
    6.6830   11.9233   -2.6188 O   0  0  0  1  0  0
    7.6382    3.1177   -2.3043 O   0  0  0  1  0  0
    4.2800    1.0836   -1.0153 O   0  5  0  1  0  0
    3.6631    2.1462    0.7396 O   0  0  0  1  0  0
    6.4687    3.6766   -0.3662 N   0  0  0  1  0  0
    6.8165    2.5433    0.2983 C   0  0  0  1  0  0
    6.3492    7.8869   -1.9079 C   0  0  0  1  0  0
    5.8965    1.5380    0.5634 C   0  0  0  1  0  0
    7.0721    8.3391   -2.9816 C   0  0  0  1  0  0
    7.2459    9.6890   -3.1489 C   0  0  0  1  0  0
    5.9773    8.7758   -0.8977 C   0  0  0  1  0  0
    6.0845    6.4598   -1.7480 C   0  0  0  1  0  0
    8.1066    2.4117    0.7770 C   0  0  0  1  0  0
    6.7092   10.5935   -2.2543 C   0  0  0  1  0  0
    6.1560   10.1420   -1.0698 C   0  0  0  1  0  0
    6.2763    0.4148    1.2903 C   0  0  0  1  0  0
    6.9498    4.0210   -1.5680 C   0  0  0  1  0  0
    6.8552    5.4079   -2.1239 C   0  0  0  1  0  0
    8.4533    1.3453    1.5792 C   0  0  0  1  0  0
    7.5524    0.3215    1.8138 C   0  0  0  1  0  0
    4.5390    1.6213    0.0542 C   0  0  0  1  0  0
    9.0320    9.3893   -4.6047 C   0  0  0  1  0  0
    6.6231   11.9084   -3.5716 H   0  0
    7.4718    2.2365   -1.9890 H   0  0
    7.4625    7.6457   -3.7055 H   0  0
    5.5184    8.4124    0.0087 H   0  0
    5.1318    6.3634   -1.3598 H   0  0
    8.8550    3.1335    0.5235 H   0  0
    5.8080   10.8354   -0.3226 H   0  0
    5.5818   -0.3900    1.4584 H   0  0
    7.4776    5.5167   -2.9765 H   0  0
    9.4396    1.3333    2.0016 H   0  0
    7.8394   -0.5465    2.3886 H   0  0
    8.7278    8.5095   -5.1725 H   0  0
    9.6403    9.1010   -3.7441 H   0  0
    9.6360   10.0003   -5.2549 H   0  0
  1 11  1  0
  1 23  1  0
  2 15  1  0
  3 18  1  0
  4 22  1  0
  5 22  2  0
  6  7  1  0
  6 18  2  0
  7  9  2  0
  7 14  1  0
  8 10  2  0
  8 12  1  0
  8 13  1  0
  9 17  1  0
  9 22  1  0
 10 11  1  0
 11 15  2  0
 12 16  2  0
 13 19  2  0
 14 20  2  0
 15 16  1  0
 17 21  2  0
 18 19  1  0
 20 21  1  0
  2 24  1  0
  3 25  1  0
 10 26  1  0
 12 27  1  0
 13 28  1  0
 14 29  1  0
 16 30  1  0
 17 31  1  0
 19 32  1  0
 20 33  1  0
 21 34  1  0
 23 35  1  0
 23 36  1  0
 23 37  1  0
M  CHG  1   4  -1
M  END
> <Name>
10245047

> <Binding Energy>
-103.6506

> <Ligand Energy>
19.0183

> <Protein Energy>
-7801.1566

> <Complex Energy>
-7885.7889

> <Complex Entropy>
-31.4803

> <Protein Entropy>
-31.4717

> <Ligand Entropy>
-19.6974

> <Entropic Energy>
19.6887

> <AbsoluteEnergy>
64.8398

> <ConfNumber>
1

> <Ionization pH>
7.5

> <IonizationIndex>
1

> <MOL_NUMBER>
488

> <NumberOfIonizations>
1

> <NumberOfStereoisomers>
1

> <NumberOfTautomers>
3

> <PUBCHEM_ATOM_DEF_STEREO_COUNT>
0

> <PUBCHEM_ATOM_UDEF_STEREO_COUNT>
0

> <PUBCHEM_BOND_DEF_STEREO_COUNT>
1

> <PUBCHEM_BOND_UDEF_STEREO_COUNT>
0

> <PUBCHEM_CACTVS_TAUTO_COUNT>
9

> <PUBCHEM_COMPONENT_COUNT>
1

> <PUBCHEM_COMPOUND_CID>
10245047

> <PUBCHEM_CONFORMER_DIVERSEORDER>
1
20
14
15
10
23
8
9
19
11
25
18
12
3
22
6
21
7
17
24
13
2
4
16
5

> <PUBCHEM_CONFORMER_ID>
009C53B700000001

> <PUBCHEM_CONFORMER_RMSD>
0.8

> <PUBCHEM_COORDINATE_TYPE>
2
5
10

> <PUBCHEM_EFFECTIVE_ROTOR_COUNT>
6

> <PUBCHEM_FEATURE_SELFOVERLAP>
45.729

> <PUBCHEM_HEAVY_ATOM_COUNT>
23

> <PUBCHEM_ISOTOPIC_ATOM_COUNT>
0

> <PUBCHEM_MMFF94_ENERGY>
84.674

> <PUBCHEM_MMFF94_PARTIAL_CHARGES>
35
1 -0.36
10 -0.15
11 0.08
12 -0.15
13 -0.18
14 -0.15
15 0.08
16 -0.15
17 -0.15
18 0.62
19 -0.14
2 -0.53
20 -0.15
21 -0.15
22 0.63
23 0.28
24 0.15
25 0.15
26 0.37
27 0.15
28 0.15
29 0.15
3 -0.57
30 0.15
31 0.15
32 0.15
33 0.15
34 0.45
38 0.5
4 -0.65
5 -0.57
6 -0.55
7 0.12
8 0.03
9 0.09

> <PUBCHEM_PHARMACOPHORE_FEATURES>
9
1 1 acceptor
1 2 donor
1 3 acceptor
1 4 acceptor
1 5 acceptor
1 6 donor
3 4 5 22 anion
6 7 9 14 17 20 21 rings
6 8 10 11 12 15 16 rings

> <PUBCHEM_SHAPE_FINGERPRINT>
10595046 47 18412263947493121520
11315181 36 17632297904558115529
11524674 6 16702021998274393815
12107183 9 17693100660517484152
12236239 1 18201440255083480912
12516196 113 18344143691825538720
12596602 18 17775568654307046512
12788726 201 17346041060713446089
13073987 5 18341614780806292105
13167823 11 18412824659736465413
13533116 47 18343019973619248472
14251764 18 18131354112102631097
14341114 176 18411422800044691773
14461889 52 18340761659036364984
15183329 4 18409728460989266443
15196674 1 18411418388622785310
15250474 111 18342725334668528679
15537594 2 18202278125845722006
15799311 1 18338532892383162187
17492 89 18123749756234990958
17834072 33 18410855460355339960
17844677 252 18411424981419274769
17857418 61 18410290315778826613
1813 80 17313109617993638069
19427546 62 18263364862515204588
20028762 73 18339919313034888890
20645477 70 18336827494673257256
21033648 29 14117514281780769929
21065198 48 18272092647528243705
21197605 99 18339082721803013482
21267235 1 18341054021923962468
21623969 137 18187657906835687779
220451 1 18412272722100705749
22950370 63 18411982442414690500
23424784 1240 18339936964448356314
23522609 53 18193587560265993740
23559900 14 18339634668213675121
239999 70 18201444653968184294
3004659 81 18333732386526063000
314194 84 18272083920053964694
338550 245 18335142046005436838
4073 2 18261397792302929267
4214541 1 18412262822612688005
4325135 7 18409167718691493196
4340502 62 18342168991181364728
46194498 28 17458627838946936868
465052 167 18130508527230467414
5104073 3 18272369758780934097
559249 180 18411979127570090269
6431902 208 18265332983638531819
67856867 119 18337956821542957661
7495541 125 17917426575007569728
7970288 3 17761772871845889850
999808 66 17968390030651751211

> <PUBCHEM_SHAPE_MULTIPOLES>
439
17.58
2.94
0.66
4.61
2.03
0.01
3.22
0.15
-0.32
0.14
0.13
0.07
-0.37

> <PUBCHEM_SHAPE_SELFOVERLAP>
942.044

> <PUBCHEM_SHAPE_VOLUME>
240.9

> <RelativeEnergy>
0

> <StereoisomerIndex>
1

> <TautomerIndex>
2

> <POSE_NUMBER>
3

> <LibDockScore>
110.1255

> <HotSpots>
5.81,8.67,-0.66,A,61,12
7.01,-0.53,1.54,A,78,21
8.41,8.07,-4.86,A,38,23

> <-In-Situ Starting Energy>
-412655.27

> <-In-Situ Final Energy>
27.84084

> <In-Situ Gradient>
0.0008186215124

> <Favorable Total>
8

> <Unfavorable Total>
0

> <Charge Total>
1

> <Hydrophobic Total>
4

> <HydrogenBond Total>
3

> <Other Total>
0

> <Favorable A:LYS6>
0

> <Favorable A:ARG55>
2

> <Favorable A:LEU58>
0

> <Favorable A:LEU61>
0

> <Favorable A:ILE62>
0

> <Favorable A:GLY64>
0

> <Favorable A:SER65>
0

> <Favorable A:TRP66>
0

> <Favorable A:SER69>
0

> <Favorable A:VAL70>
0

> <Favorable A:PRO73>
0

> <Favorable A:ALA74>
0

> <Favorable A:PHE76>
0

> <Favorable A:ALA77>
0

> <Favorable A:THR78>
0

> <Favorable A:GLU79>
0

> <Favorable A:PHE82>
0

> <Favorable A:ARG83>
0

> <Favorable A:LEU85>
0

> <Favorable A:THR86>
0

> <Favorable A:TRP89>
0

> <Favorable A:THR90>
0

> <Favorable A:ASN93>
2

> <Favorable A:HIS94>
1

> <Favorable A:SER96>
0

> <Favorable A:VAL97>
1

> <Favorable A:TRP98>
0

> <Favorable A:PHE140>
0

> <Favorable A:LEU141>
0

> <Favorable A:ASN144>
0

> <Favorable A:ILE148>
0

> <Favorable A:ILE150>
0

> <Favorable A:HIS151>
0

> <Favorable A:ILE152>
0

> <Favorable A:ALA154>
0

> <Favorable A:SER155>
0

> <Favorable A:ILE156>
0

> <Favorable A:GLY158>
0

> <Favorable A:TYR159>
0

> <Favorable A:ARG160>
0

> <Favorable A:ARG161>
0

> <Favorable A:ASN162>
0

> <Favorable A:LYS163>
0

> <Favorable A:SER167>
0

> <Favorable A:ASP168>
0

> <Favorable A:SER169>
0

> <Favorable A:ASN171>
0

> <Favorable A:PHE172>
0

> <Favorable A:THR173>
0

> <Favorable A:ARG174>
0

> <Favorable A:PHE175>
0

> <Favorable A:SER176>
0

> <Favorable A:SER177>
0

> <Favorable A:LEU178>
0

> <Favorable A:ILE179>
0

> <Favorable A:VAL180>
0

> <Favorable A:LEU181>
0

> <Favorable A:SER183>
0

> <Favorable A:THR184>
0

> <Favorable A:PHE186>
0

> <Favorable A:ILE187>
1

> <Favorable A:PHE188>
0

> <Favorable A:ILE189>
0

> <Favorable A:PRO190>
0

> <Favorable A:PHE191>
0

> <Favorable A:TYR240>
0

> <Favorable A:PHE243>
0

> <Favorable A:SER244>
0

> <Favorable A:PHE247>
1

> <Favorable A:PHE248>
0

> <Favorable A:VAL251>
0

> <Favorable A:TRP252>
0

> <Favorable A:SER254>
0

> <Favorable A:GLU255>
0

> <Favorable A:ARG256>
0

> <Favorable A:LEU257>
0

> <Favorable A:GLU258>
0

> <Favorable A:GLU259>
0

> <Favorable A:LEU261>
0

> <Favorable A:ILE262>
0

> <Favorable A:ILE263>
0

> <Favorable A:SER265>
0

> <Favorable A:GLN266>
0

> <Favorable A:MET268>
0

> <Favorable A:GLY269>
0

> <Favorable A:TYR272>
0

> <Favorable A:PRO273>
0

> <Unfavorable A:ARG55>
0

> <Unfavorable A:PRO73>
0

> <Unfavorable A:PHE76>
0

> <Unfavorable A:GLU79>
0

> <Unfavorable A:ARG83>
0

> <Unfavorable A:THR86>
0

> <Unfavorable A:TRP89>
0

> <Unfavorable A:THR90>
0

> <Unfavorable A:ASN93>
0

> <Unfavorable A:TRP98>
0

> <Unfavorable A:ASN144>
0

> <Unfavorable A:SER155>
0

> <Unfavorable A:GLY158>
0

> <Unfavorable A:TYR159>
0

> <Unfavorable A:ASN162>
0

> <Unfavorable A:ASP168>
0

> <Unfavorable A:ASN171>
0

> <Unfavorable A:THR173>
0

> <Unfavorable A:ARG174>
0

> <Unfavorable A:SER183>
0

> <Unfavorable A:THR184>
0

> <Unfavorable A:PHE186>
0

> <Unfavorable A:SER244>
0

> <Unfavorable A:SER254>
0

> <Unfavorable A:GLU255>
0

> <Unfavorable A:SER265>
0

> <Unfavorable A:GLN266>
0

> <Unfavorable A:GLY269>
0

> <Charge A:ARG55>
1

> <Charge A:PHE76>
0

> <Charge A:GLU79>
0

> <Charge A:PHE82>
0

> <Charge A:ARG83>
0

> <Charge A:TRP89>
0

> <Charge A:HIS94>
0

> <Charge A:TRP98>
0

> <Charge A:TYR159>
0

> <Charge A:ARG161>
0

> <Charge A:LYS163>
0

> <Charge A:ASP168>
0

> <Charge A:PHE172>
0

> <Charge A:ARG174>
0

> <Charge A:PHE175>
0

> <Charge A:PHE188>
0

> <Charge A:PHE247>
0

> <Charge A:PHE248>
0

> <Hydrophobic A:LEU58>
0

> <Hydrophobic A:LEU61>
0

> <Hydrophobic A:ILE62>
0

> <Hydrophobic A:TRP66>
0

> <Hydrophobic A:VAL70>
0

> <Hydrophobic A:PRO73>
0

> <Hydrophobic A:ALA74>
0

> <Hydrophobic A:PHE76>
0

> <Hydrophobic A:ALA77>
0

> <Hydrophobic A:THR78>
0

> <Hydrophobic A:PHE82>
0

> <Hydrophobic A:ARG83>
0

> <Hydrophobic A:LEU85>
0

> <Hydrophobic A:TRP89>
0

> <Hydrophobic A:THR90>
0

> <Hydrophobic A:ASN93>
1

> <Hydrophobic A:HIS94>
0

> <Hydrophobic A:VAL97>
1

> <Hydrophobic A:TRP98>
0

> <Hydrophobic A:PHE140>
0

> <Hydrophobic A:LEU141>
0

> <Hydrophobic A:ILE148>
0

> <Hydrophobic A:ILE150>
0

> <Hydrophobic A:HIS151>
0

> <Hydrophobic A:ILE152>
0

> <Hydrophobic A:ALA154>
0

> <Hydrophobic A:SER155>
0

> <Hydrophobic A:ILE156>
0

> <Hydrophobic A:GLY158>
0

> <Hydrophobic A:TYR159>
0

> <Hydrophobic A:ARG160>
0

> <Hydrophobic A:ARG161>
0

> <Hydrophobic A:ASP168>
0

> <Hydrophobic A:ASN171>
0

> <Hydrophobic A:PHE172>
0

> <Hydrophobic A:ARG174>
0

> <Hydrophobic A:PHE175>
0

> <Hydrophobic A:LEU178>
0

> <Hydrophobic A:ILE179>
0

> <Hydrophobic A:VAL180>
0

> <Hydrophobic A:LEU181>
0

> <Hydrophobic A:PHE186>
0

> <Hydrophobic A:ILE187>
1

> <Hydrophobic A:PHE188>
0

> <Hydrophobic A:ILE189>
0

> <Hydrophobic A:PRO190>
0

> <Hydrophobic A:PHE191>
0

> <Hydrophobic A:TYR240>
0

> <Hydrophobic A:PHE243>
0

> <Hydrophobic A:PHE247>
1

> <Hydrophobic A:PHE248>
0

> <Hydrophobic A:VAL251>
0

> <Hydrophobic A:TRP252>
0

> <Hydrophobic A:SER254>
0

> <Hydrophobic A:LEU261>
0

> <Hydrophobic A:ILE262>
0

> <Hydrophobic A:ILE263>
0

> <Hydrophobic A:TYR272>
0

> <Hydrophobic A:PRO273>
0

> <HydrogenBond A:LYS6>
0

> <HydrogenBond A:ARG55>
1

> <HydrogenBond A:GLY64>
0

> <HydrogenBond A:SER65>
0

> <HydrogenBond A:TRP66>
0

> <HydrogenBond A:SER69>
0

> <HydrogenBond A:PRO73>
0

> <HydrogenBond A:ALA74>
0

> <HydrogenBond A:PHE76>
0

> <HydrogenBond A:ALA77>
0

> <HydrogenBond A:THR78>
0

> <HydrogenBond A:GLU79>
0

> <HydrogenBond A:PHE82>
0

> <HydrogenBond A:ARG83>
0

> <HydrogenBond A:LEU85>
0

> <HydrogenBond A:THR86>
0

> <HydrogenBond A:TRP89>
0

> <HydrogenBond A:THR90>
0

> <HydrogenBond A:ASN93>
1

> <HydrogenBond A:HIS94>
1

> <HydrogenBond A:SER96>
0

> <HydrogenBond A:TRP98>
0

> <HydrogenBond A:ASN144>
0

> <HydrogenBond A:HIS151>
0

> <HydrogenBond A:ILE152>
0

> <HydrogenBond A:ALA154>
0

> <HydrogenBond A:SER155>
0

> <HydrogenBond A:ILE156>
0

> <HydrogenBond A:GLY158>
0

> <HydrogenBond A:TYR159>
0

> <HydrogenBond A:ASN162>
0

> <HydrogenBond A:LYS163>
0

> <HydrogenBond A:SER167>
0

> <HydrogenBond A:ASP168>
0

> <HydrogenBond A:SER169>
0

> <HydrogenBond A:ASN171>
0

> <HydrogenBond A:PHE172>
0

> <HydrogenBond A:THR173>
0

> <HydrogenBond A:ARG174>
0

> <HydrogenBond A:PHE175>
0

> <HydrogenBond A:SER176>
0

> <HydrogenBond A:SER177>
0

> <HydrogenBond A:ILE179>
0

> <HydrogenBond A:VAL180>
0

> <HydrogenBond A:SER183>
0

> <HydrogenBond A:THR184>
0

> <HydrogenBond A:PHE186>
0

> <HydrogenBond A:ILE187>
0

> <HydrogenBond A:PRO190>
0

> <HydrogenBond A:TYR240>
0

> <HydrogenBond A:PHE243>
0

> <HydrogenBond A:SER244>
0

> <HydrogenBond A:PHE247>
0

> <HydrogenBond A:VAL251>
0

> <HydrogenBond A:SER254>
0

> <HydrogenBond A:GLU255>
0

> <HydrogenBond A:ARG256>
0

> <HydrogenBond A:LEU257>
0

> <HydrogenBond A:GLU258>
0

> <HydrogenBond A:GLU259>
0

> <HydrogenBond A:ILE262>
0

> <HydrogenBond A:SER265>
0

> <HydrogenBond A:GLN266>
0

> <HydrogenBond A:MET268>
0

> <HydrogenBond A:GLY269>
0

> <HydrogenBond A:PRO273>
0

> <Other A:SER69>
0

> <Other A:TRP89>
0

> <Other A:TYR159>
0

> <Other A:PHE172>
0

> <Other A:SER176>
0

> <Other A:SER265>
0

$$$$
10317069
  SciTegic09122300493D

 49 50  0  0  0  0            999 V2000
   11.2134    3.5999  -14.4277 O   0  0  0  1  0  0
   10.9011   -0.8351  -12.6622 O   0  0  0  1  0  0
   14.5156   -1.6315  -15.7021 O   0  0  0  1  0  0
   13.7369    2.8036  -13.9078 O   0  0  0  1  0  0
   11.0307   -2.9396  -14.3559 O   0  0  0  1  0  0
   15.4396   -8.9717  -16.5472 O   0  0  0  1  0  0
   11.3691    1.9471  -12.5958 C   0  0  0  1  0  0
   12.3054    0.9930  -13.2879 C   0  0  0  1  0  0
   10.4997    2.6501  -13.6526 C   0  0  1  1  0  0
   11.9977   -0.3570  -13.3556 C   0  0  0  1  0  0
   13.4220    1.4610  -13.9669 C   0  0  0  1  0  0
   12.7546   -1.2230  -14.1353 C   0  0  0  1  0  0
    9.3282    3.3627  -13.0329 C   0  0  0  1  0  0
   13.8383   -0.7391  -14.8718 C   0  0  0  1  0  0
   14.1789    0.6094  -14.7570 C   0  0  0  1  0  0
   12.3517   -2.6311  -14.1807 C   0  0  0  1  0  0
    9.7279    4.5833  -12.2529 C   0  0  0  1  0  0
    8.0505    3.0462  -13.3114 C   0  0  0  1  0  0
   13.2743   -3.6003  -14.0349 C   0  0  0  1  0  0
   12.9308   -5.0283  -13.9572 C   0  0  0  1  0  0
   13.7141   -6.0588  -14.3304 C   0  0  0  1  0  0
   15.3410   -1.0638  -16.7000 C   0  0  0  1  0  0
   13.1154   -7.3922  -14.4793 C   0  0  0  1  0  0
   15.1223   -5.9333  -14.7627 C   0  0  0  1  0  0
   13.6963   -8.3760  -15.1842 C   0  0  0  1  0  0
   15.7488   -6.9017  -15.4634 C   0  0  0  1  0  0
   15.0153   -8.1439  -15.7996 C   0  0  0  1  0  0
   12.1497    3.3913  -14.4357 H   0  0
   10.6656   -1.6914  -12.9969 H   0  0
   14.2991    2.9505  -13.1535 H   0  0
   10.5744   -2.3331  -14.9375 H   0  0
   10.7339    1.3991  -11.8989 H   0  0
   11.9237    2.6645  -11.9906 H   0  0
   10.1080    1.9000  -14.3435 H   0  0
   15.0171    1.0257  -15.2929 H   0  0
   10.5687    5.0852  -12.7205 H   0  0
   10.0116    4.3144  -11.2357 H   0  0
    8.9129    5.2949  -12.2208 H   0  0
    7.8032    2.2101  -13.9372 H   0  0
    7.2304    3.6196  -12.9225 H   0  0
   14.3153   -3.3577  -14.0029 H   0  0
   11.9174   -5.2232  -13.6588 H   0  0
   16.2161   -0.5846  -16.2599 H   0  0
   14.7878   -0.3456  -17.3069 H   0  0
   15.6960   -1.8527  -17.3631 H   0  0
   12.1667   -7.5561  -14.0173 H   0  0
   15.6453   -5.0285  -14.5164 H   0  0
   13.2128   -9.3256  -15.3058 H   0  0
   16.7672   -6.7905  -15.7879 H   0  0
  1  9  1  0
  2 10  1  0
  3 14  1  0
  3 22  1  0
  4 11  1  0
  5 16  1  0
  6 27  2  0
  7  8  1  0
  7  9  1  0
  8 10  2  0
  8 11  1  0
  9 13  1  0
 10 12  1  0
 11 15  2  0
 12 14  2  0
 12 16  1  0
 13 17  1  0
 13 18  2  0
 14 15  1  0
 16 19  2  0
 19 20  1  0
 20 21  2  0
 21 23  1  0
 21 24  1  0
 23 25  2  0
 24 26  2  0
 25 27  1  0
 26 27  1  0
  1 28  1  0
  2 29  1  0
  4 30  1  0
  5 31  1  0
  7 32  1  0
  7 33  1  0
  9 34  1  0
 15 35  1  0
 17 36  1  0
 17 37  1  0
 17 38  1  0
 18 39  1  0
 18 40  1  0
 19 41  1  0
 20 42  1  0
 22 43  1  0
 22 44  1  0
 22 45  1  0
 23 46  1  0
 24 47  1  0
 25 48  1  0
 26 49  1  0
M  END
> <Name>
10317069

> <Binding Energy>
-82.0609

> <Ligand Energy>
24.7515

> <Protein Energy>
-7801.1566

> <Complex Energy>
-7858.466

> <Complex Entropy>
-31.4862

> <Protein Entropy>
-31.4717

> <Ligand Entropy>
-20.0852

> <Entropic Energy>
20.0707

> <AbsoluteEnergy>
60.1178

> <ConfNumber>
87

> <Ionization pH>
7.5

> <IonizationIndex>
1

> <MOL_NUMBER>
491

> <NumberOfIonizations>
1

> <NumberOfStereoisomers>
1

> <NumberOfTautomers>
4

> <PUBCHEM_ATOM_DEF_STEREO_COUNT>
0

> <PUBCHEM_ATOM_UDEF_STEREO_COUNT>
1

> <PUBCHEM_BOND_DEF_STEREO_COUNT>
1

> <PUBCHEM_BOND_UDEF_STEREO_COUNT>
0

> <PUBCHEM_CACTVS_TAUTO_COUNT>
57

> <PUBCHEM_COMPONENT_COUNT>
1

> <PUBCHEM_COMPOUND_CID>
10317069

> <PUBCHEM_CONFORMER_DIVERSEORDER>
1
109
95
111
96
35
9
17
132
92
3
121
64
15
99
20
122
107
91
13
125
60
102
73
126
110
45
66
119
123
4
103
88
54
12
134
61
71
129
21
58
42
93
25
56
113
67
104
51
94
106
14
74
120
80
130
47
79
5
40
19
43
135
24
7
30
101
33
2
100
10
16
90
133
28
36
27
52
116
62
75
72
37
11
29
117
105
85
131
8
86
69
46
108
39
63
81
34
49
97
57
137
112
87
77
26
83
128
76
55
124
65
138
22
82
84
23
48
89
118
44
68
53
32
41
6
114
38
50
127
18
31
98
59
78
136
70
115

> <PUBCHEM_CONFORMER_ID>
009D6D0D00000001

> <PUBCHEM_CONFORMER_RMSD>
0.8

> <PUBCHEM_COORDINATE_TYPE>
2
5
10

> <PUBCHEM_EFFECTIVE_ROTOR_COUNT>
7

> <PUBCHEM_FEATURE_SELFOVERLAP>
45.674

> <PUBCHEM_HEAVY_ATOM_COUNT>
27

> <PUBCHEM_ISOTOPIC_ATOM_COUNT>
0

> <PUBCHEM_MMFF94_ENERGY>
91.2125

> <PUBCHEM_MMFF94_PARTIAL_CHARGES>
40
1 -0.68
10 0.08
11 0.08
12 0.09
13 -0.28
14 0.08
15 -0.15
16 0.47
17 0.14
18 -0.3
19 -0.14
2 -0.53
20 -0.18
21 0.03
22 0.28
23 -0.15
24 -0.15
25 -0.15
26 -0.15
27 0.08
3 -0.36
31 0.15
35 0.4
36 0.15
37 0.15
38 0.45
39 0.15
4 -0.53
40 0.45
41 0.15
45 0.15
46 0.15
47 0.15
48 0.15
49 0.45
5 -0.57
6 -0.53
7 0.14
8 -0.14
9 0.42

> <PUBCHEM_PHARMACOPHORE_FEATURES>
9
1 1 acceptor
1 1 donor
1 2 donor
1 3 acceptor
1 4 donor
1 5 acceptor
1 6 donor
6 21 23 24 25 26 27 rings
6 8 10 11 12 14 15 rings

> <PUBCHEM_SHAPE_FINGERPRINT>
10 15 17385723633698240580
10670039 82 16200440126468510657
10674148 151 17917715695769625204
10693767 8 10015584978073697029
10794284 68 15506640777665833298
11796584 16 14189565347721329900
11823591 26 18340197574699821888
1200032 147 16485598454553529347
12390115 104 18269558397706269071
12596602 18 18411422821561596883
12623949 98 12252723891631092904
13540713 5 18120066594256843370
13631057 29 18129088100395651487
13782708 43 11675968496134384976
13885169 86 18336830917240797412
13955234 65 18189049803021739594
14251764 75 18336548338842217088
14341114 176 17968097482637407881
14341114 328 18272086076829245163
14747281 78 18264229010177370660
14790565 3 18336543927752490452
14840074 17 18202002127628066117
15183329 4 15338847451407524580
15238133 3 17988067976915371618
15475509 35 15719941412016443554
17980427 23 17749957785975287079
1813 80 12035730864735808931
18222031 100 9799421035687897332
19309040 13 18122916593020859892
19315092 285 8430057321563914604
1979834 28 17603589625258805348
21033650 10 15554175800739733467
21521239 73 11167940255740610557
21756936 100 18199180870620885846
21781055 127 17988927739569265602
21792964 463 17914638093630068745
221357 26 10879985849082154915
22224240 67 18040997367080516467
22393880 68 13398619555247914581
25147074 1 18046034290241274754
3178227 256 18261670360230209378
3411729 13 18333452036498584946
38570 142 18201729465301163876
397830 11 17458346351417392601
4340502 62 17167860868126666016
437795 70 15697730267164373929
5104073 3 18114170973610100338
5364581 5 17386860580814947517
59682541 52 16128389142269499052

> <PUBCHEM_SHAPE_MULTIPOLES>
520.43
17.48
3.58
1.54
17.92
2.23
-0.08
-19.39
4.67
-4.8
-0.57
0.5
0.07
-1.75

> <PUBCHEM_SHAPE_SELFOVERLAP>
1107.333

> <PUBCHEM_SHAPE_VOLUME>
289.9

> <RelativeEnergy>
15.4434

> <StereoisomerIndex>
1

> <TautomerIndex>
2

> <POSE_NUMBER>
4

> <LibDockScore>
100.5578

> <HotSpots>
7.61,3.27,-13.26,A,25,17
13.01,-7.53,-14.86,A,17,23
15.61,-6.73,-13.65,A,23,26

> <-In-Situ Starting Energy>
-219.279536

> <-In-Situ Final Energy>
27.7004973

> <In-Situ Gradient>
0.0009641230411

> <Favorable Total>
14

> <Unfavorable Total>
0

> <Charge Total>
0

> <Hydrophobic Total>
9

> <HydrogenBond Total>
5

> <Other Total>
0

> <Favorable A:LYS6>
2

> <Favorable A:ARG55>
0

> <Favorable A:LEU58>
0

> <Favorable A:LEU61>
1

> <Favorable A:ILE62>
0

> <Favorable A:GLY64>
0

> <Favorable A:SER65>
1

> <Favorable A:TRP66>
1

> <Favorable A:SER69>
0

> <Favorable A:VAL70>
0

> <Favorable A:PRO73>
0

> <Favorable A:ALA74>
0

> <Favorable A:PHE76>
1

> <Favorable A:ALA77>
0

> <Favorable A:THR78>
0

> <Favorable A:GLU79>
0

> <Favorable A:PHE82>
0

> <Favorable A:ARG83>
0

> <Favorable A:LEU85>
2

> <Favorable A:THR86>
0

> <Favorable A:TRP89>
4

> <Favorable A:THR90>
0

> <Favorable A:ASN93>
0

> <Favorable A:HIS94>
0

> <Favorable A:SER96>
0

> <Favorable A:VAL97>
0

> <Favorable A:TRP98>
0

> <Favorable A:PHE140>
0

> <Favorable A:LEU141>
0

> <Favorable A:ASN144>
0

> <Favorable A:ILE148>
0

> <Favorable A:ILE150>
0

> <Favorable A:HIS151>
0

> <Favorable A:ILE152>
0

> <Favorable A:ALA154>
0

> <Favorable A:SER155>
0

> <Favorable A:ILE156>
0

> <Favorable A:GLY158>
0

> <Favorable A:TYR159>
0

> <Favorable A:ARG160>
0

> <Favorable A:ARG161>
0

> <Favorable A:ASN162>
0

> <Favorable A:LYS163>
0

> <Favorable A:SER167>
0

> <Favorable A:ASP168>
0

> <Favorable A:SER169>
0

> <Favorable A:ASN171>
0

> <Favorable A:PHE172>
0

> <Favorable A:THR173>
0

> <Favorable A:ARG174>
0

> <Favorable A:PHE175>
0

> <Favorable A:SER176>
0

> <Favorable A:SER177>
0

> <Favorable A:LEU178>
0

> <Favorable A:ILE179>
0

> <Favorable A:VAL180>
0

> <Favorable A:LEU181>
0

> <Favorable A:SER183>
0

> <Favorable A:THR184>
0

> <Favorable A:PHE186>
0

> <Favorable A:ILE187>
0

> <Favorable A:PHE188>
0

> <Favorable A:ILE189>
0

> <Favorable A:PRO190>
0

> <Favorable A:PHE191>
0

> <Favorable A:TYR240>
0

> <Favorable A:PHE243>
0

> <Favorable A:SER244>
0

> <Favorable A:PHE247>
0

> <Favorable A:PHE248>
0

> <Favorable A:VAL251>
0

> <Favorable A:TRP252>
0

> <Favorable A:SER254>
0

> <Favorable A:GLU255>
0

> <Favorable A:ARG256>
0

> <Favorable A:LEU257>
0

> <Favorable A:GLU258>
0

> <Favorable A:GLU259>
0

> <Favorable A:LEU261>
0

> <Favorable A:ILE262>
0

> <Favorable A:ILE263>
1

> <Favorable A:SER265>
0

> <Favorable A:GLN266>
1

> <Favorable A:MET268>
0

> <Favorable A:GLY269>
0

> <Favorable A:TYR272>
0

> <Favorable A:PRO273>
0

> <Unfavorable A:ARG55>
0

> <Unfavorable A:PRO73>
0

> <Unfavorable A:PHE76>
0

> <Unfavorable A:GLU79>
0

> <Unfavorable A:ARG83>
0

> <Unfavorable A:THR86>
0

> <Unfavorable A:TRP89>
0

> <Unfavorable A:THR90>
0

> <Unfavorable A:ASN93>
0

> <Unfavorable A:TRP98>
0

> <Unfavorable A:ASN144>
0

> <Unfavorable A:SER155>
0

> <Unfavorable A:GLY158>
0

> <Unfavorable A:TYR159>
0

> <Unfavorable A:ASN162>
0

> <Unfavorable A:ASP168>
0

> <Unfavorable A:ASN171>
0

> <Unfavorable A:THR173>
0

> <Unfavorable A:ARG174>
0

> <Unfavorable A:SER183>
0

> <Unfavorable A:THR184>
0

> <Unfavorable A:PHE186>
0

> <Unfavorable A:SER244>
0

> <Unfavorable A:SER254>
0

> <Unfavorable A:GLU255>
0

> <Unfavorable A:SER265>
0

> <Unfavorable A:GLN266>
0

> <Unfavorable A:GLY269>
0

> <Charge A:ARG55>
0

> <Charge A:PHE76>
0

> <Charge A:GLU79>
0

> <Charge A:PHE82>
0

> <Charge A:ARG83>
0

> <Charge A:TRP89>
0

> <Charge A:HIS94>
0

> <Charge A:TRP98>
0

> <Charge A:TYR159>
0

> <Charge A:ARG161>
0

> <Charge A:LYS163>
0

> <Charge A:ASP168>
0

> <Charge A:PHE172>
0

> <Charge A:ARG174>
0

> <Charge A:PHE175>
0

> <Charge A:PHE188>
0

> <Charge A:PHE247>
0

> <Charge A:PHE248>
0

> <Hydrophobic A:LEU58>
0

> <Hydrophobic A:LEU61>
1

> <Hydrophobic A:ILE62>
0

> <Hydrophobic A:TRP66>
0

> <Hydrophobic A:VAL70>
0

> <Hydrophobic A:PRO73>
0

> <Hydrophobic A:ALA74>
0

> <Hydrophobic A:PHE76>
1

> <Hydrophobic A:ALA77>
0

> <Hydrophobic A:THR78>
0

> <Hydrophobic A:PHE82>
0

> <Hydrophobic A:ARG83>
0

> <Hydrophobic A:LEU85>
2

> <Hydrophobic A:TRP89>
4

> <Hydrophobic A:THR90>
0

> <Hydrophobic A:ASN93>
0

> <Hydrophobic A:HIS94>
0

> <Hydrophobic A:VAL97>
0

> <Hydrophobic A:TRP98>
0

> <Hydrophobic A:PHE140>
0

> <Hydrophobic A:LEU141>
0

> <Hydrophobic A:ILE148>
0

> <Hydrophobic A:ILE150>
0

> <Hydrophobic A:HIS151>
0

> <Hydrophobic A:ILE152>
0

> <Hydrophobic A:ALA154>
0

> <Hydrophobic A:SER155>
0

> <Hydrophobic A:ILE156>
0

> <Hydrophobic A:GLY158>
0

> <Hydrophobic A:TYR159>
0

> <Hydrophobic A:ARG160>
0

> <Hydrophobic A:ARG161>
0

> <Hydrophobic A:ASP168>
0

> <Hydrophobic A:ASN171>
0

> <Hydrophobic A:PHE172>
0

> <Hydrophobic A:ARG174>
0

> <Hydrophobic A:PHE175>
0

> <Hydrophobic A:LEU178>
0

> <Hydrophobic A:ILE179>
0

> <Hydrophobic A:VAL180>
0

> <Hydrophobic A:LEU181>
0

> <Hydrophobic A:PHE186>
0

> <Hydrophobic A:ILE187>
0

> <Hydrophobic A:PHE188>
0

> <Hydrophobic A:ILE189>
0

> <Hydrophobic A:PRO190>
0

> <Hydrophobic A:PHE191>
0

> <Hydrophobic A:TYR240>
0

> <Hydrophobic A:PHE243>
0

> <Hydrophobic A:PHE247>
0

> <Hydrophobic A:PHE248>
0

> <Hydrophobic A:VAL251>
0

> <Hydrophobic A:TRP252>
0

> <Hydrophobic A:SER254>
0

> <Hydrophobic A:LEU261>
0

> <Hydrophobic A:ILE262>
0

> <Hydrophobic A:ILE263>
1

> <Hydrophobic A:TYR272>
0

> <Hydrophobic A:PRO273>
0

> <HydrogenBond A:LYS6>
2

> <HydrogenBond A:ARG55>
0

> <HydrogenBond A:GLY64>
0

> <HydrogenBond A:SER65>
1

> <HydrogenBond A:TRP66>
1

> <HydrogenBond A:SER69>
0

> <HydrogenBond A:PRO73>
0

> <HydrogenBond A:ALA74>
0

> <HydrogenBond A:PHE76>
0

> <HydrogenBond A:ALA77>
0

> <HydrogenBond A:THR78>
0

> <HydrogenBond A:GLU79>
0

> <HydrogenBond A:PHE82>
0

> <HydrogenBond A:ARG83>
0

> <HydrogenBond A:LEU85>
0

> <HydrogenBond A:THR86>
0

> <HydrogenBond A:TRP89>
0

> <HydrogenBond A:THR90>
0

> <HydrogenBond A:ASN93>
0

> <HydrogenBond A:HIS94>
0

> <HydrogenBond A:SER96>
0

> <HydrogenBond A:TRP98>
0

> <HydrogenBond A:ASN144>
0

> <HydrogenBond A:HIS151>
0

> <HydrogenBond A:ILE152>
0

> <HydrogenBond A:ALA154>
0

> <HydrogenBond A:SER155>
0

> <HydrogenBond A:ILE156>
0

> <HydrogenBond A:GLY158>
0

> <HydrogenBond A:TYR159>
0

> <HydrogenBond A:ASN162>
0

> <HydrogenBond A:LYS163>
0

> <HydrogenBond A:SER167>
0

> <HydrogenBond A:ASP168>
0

> <HydrogenBond A:SER169>
0

> <HydrogenBond A:ASN171>
0

> <HydrogenBond A:PHE172>
0

> <HydrogenBond A:THR173>
0

> <HydrogenBond A:ARG174>
0

> <HydrogenBond A:PHE175>
0

> <HydrogenBond A:SER176>
0

> <HydrogenBond A:SER177>
0

> <HydrogenBond A:ILE179>
0

> <HydrogenBond A:VAL180>
0

> <HydrogenBond A:SER183>
0

> <HydrogenBond A:THR184>
0

> <HydrogenBond A:PHE186>
0

> <HydrogenBond A:ILE187>
0

> <HydrogenBond A:PRO190>
0

> <HydrogenBond A:TYR240>
0

> <HydrogenBond A:PHE243>
0

> <HydrogenBond A:SER244>
0

> <HydrogenBond A:PHE247>
0

> <HydrogenBond A:VAL251>
0

> <HydrogenBond A:SER254>
0

> <HydrogenBond A:GLU255>
0

> <HydrogenBond A:ARG256>
0

> <HydrogenBond A:LEU257>
0

> <HydrogenBond A:GLU258>
0

> <HydrogenBond A:GLU259>
0

> <HydrogenBond A:ILE262>
0

> <HydrogenBond A:SER265>
0

> <HydrogenBond A:GLN266>
1

> <HydrogenBond A:MET268>
0

> <HydrogenBond A:GLY269>
0

> <HydrogenBond A:PRO273>
0

> <Other A:SER69>
0

> <Other A:TRP89>
0

> <Other A:TYR159>
0

> <Other A:PHE172>
0

> <Other A:SER176>
0

> <Other A:SER265>
0

$$$$
10338075
  SciTegic09122300493D

 46 48  0  0  0  0            999 V2000
   20.4486    0.7113  -10.6352 O   0  0  0  1  0  0
   15.9079    2.1408  -10.0119 O   0  0  0  1  0  0
   17.3212   -1.8208   -7.7860 O   0  0  0  1  0  0
   14.6507   -1.1114   -8.4849 O   0  0  0  1  0  0
   11.7602    5.6523   -4.3508 O   0  0  0  1  0  0
   21.4691   -0.2736  -10.5970 C   0  0  0  1  0  0
   21.1784   -1.4313   -9.6821 C   0  0  0  1  0  0
   18.9555   -0.6378   -9.2117 C   0  0  0  1  0  0
   19.2175    0.4549  -10.0367 C   0  0  0  1  0  0
   21.6660   -0.7779  -12.0293 C   0  0  0  1  0  0
   22.7265    0.4473  -10.0977 C   0  0  0  1  0  0
   20.0365   -1.6064   -9.0055 C   0  0  0  1  0  0
   17.6841   -0.7679   -8.6232 C   0  0  0  1  0  0
   18.2277    1.3859  -10.2976 C   0  0  0  1  0  0
   16.7006    0.1799   -8.8932 C   0  0  0  1  0  0
   16.9570    1.2535   -9.7476 C   0  0  0  1  0  0
   15.3746    0.0367   -8.2795 C   0  0  0  1  0  0
   14.9649    1.0909   -7.5461 C   0  0  0  1  0  0
   13.6092    1.3071   -7.0237 C   0  0  0  1  0  0
   16.1274    3.1093  -11.0190 C   0  0  0  1  0  0
   13.2036    2.3618   -6.2864 C   0  0  0  1  0  0
   14.1005    3.3999   -5.7367 C   0  0  0  1  0  0
   11.7720    2.5514   -6.0173 C   0  0  0  1  0  0
   13.6493    4.5052   -5.1077 C   0  0  0  1  0  0
   11.2827    3.6330   -5.3830 C   0  0  0  1  0  0
   12.1973    4.6966   -4.9152 C   0  0  0  1  0  0
   17.7633   -2.6315   -7.9731 H   0  0
   14.2844   -1.4568   -7.6705 H   0  0
   21.9821   -2.1325   -9.5499 H   0  0
   21.8954    0.0479  -12.7026 H   0  0
   20.7622   -1.2622  -12.3979 H   0  0
   22.4820   -1.4985  -12.0893 H   0  0
   22.5806    0.8195   -9.0828 H   0  0
   22.9666    1.3012  -10.7314 H   0  0
   23.5913   -0.2167  -10.0861 H   0  0
   19.9784   -2.4441   -8.3425 H   0  0
   18.4841    2.2091  -10.9468 H   0  0
   15.6689    1.8758   -7.3432 H   0  0
   12.8879    0.5709   -7.3271 H   0  0
   16.4094    2.6412  -11.9632 H   0  0
   16.8911    3.8238  -10.7161 H   0  0
   15.2070    3.6677  -11.1881 H   0  0
   15.1563    3.2535   -5.8452 H   0  0
   11.1209    1.7704   -6.3581 H   0  0
   14.3197    5.2555   -4.7326 H   0  0
   10.2367    3.7270   -5.1810 H   0  0
  1  6  1  0
  1  9  1  0
  2 16  1  0
  2 20  1  0
  3 13  1  0
  4 17  1  0
  5 26  2  0
  6  7  1  0
  6 10  1  0
  6 11  1  0
  7 12  2  0
  8  9  2  0
  8 12  1  0
  8 13  1  0
  9 14  1  0
 13 15  2  0
 14 16  2  0
 15 16  1  0
 15 17  1  0
 17 18  2  0
 18 19  1  0
 19 21  2  0
 21 22  1  0
 21 23  1  0
 22 24  2  0
 23 25  2  0
 24 26  1  0
 25 26  1  0
  3 27  1  0
  4 28  1  0
  7 29  1  0
 10 30  1  0
 10 31  1  0
 10 32  1  0
 11 33  1  0
 11 34  1  0
 11 35  1  0
 12 36  1  0
 14 37  1  0
 18 38  1  0
 19 39  1  0
 20 40  1  0
 20 41  1  0
 20 42  1  0
 22 43  1  0
 23 44  1  0
 24 45  1  0
 25 46  1  0
M  END
> <Name>
10338075

> <Binding Energy>
-94.5447

> <Ligand Energy>
36.1318

> <Protein Energy>
-7801.1566

> <Complex Energy>
-7859.5695

> <Complex Entropy>
-31.4849

> <Protein Entropy>
-31.4717

> <Ligand Entropy>
-19.9609

> <Entropic Energy>
19.9476

> <AbsoluteEnergy>
54.8132

> <ConfNumber>
4

> <Ionization pH>
7.5

> <IonizationIndex>
1

> <MOL_NUMBER>
496

> <NumberOfIonizations>
1

> <NumberOfStereoisomers>
1

> <NumberOfTautomers>
3

> <PUBCHEM_ATOM_DEF_STEREO_COUNT>
0

> <PUBCHEM_ATOM_UDEF_STEREO_COUNT>
0

> <PUBCHEM_BOND_DEF_STEREO_COUNT>
1

> <PUBCHEM_BOND_UDEF_STEREO_COUNT>
0

> <PUBCHEM_CACTVS_TAUTO_COUNT>
21

> <PUBCHEM_COMPONENT_COUNT>
1

> <PUBCHEM_COMPOUND_CID>
10338075

> <PUBCHEM_CONFORMER_DIVERSEORDER>
1
4
6
9
3
5
10
2
11
7
8

> <PUBCHEM_CONFORMER_ID>
009DBF1B00000001

> <PUBCHEM_CONFORMER_RMSD>
0.8

> <PUBCHEM_COORDINATE_TYPE>
2
5
10

> <PUBCHEM_EFFECTIVE_ROTOR_COUNT>
4.4

> <PUBCHEM_FEATURE_SELFOVERLAP>
45.701

> <PUBCHEM_HEAVY_ATOM_COUNT>
26

> <PUBCHEM_ISOTOPIC_ATOM_COUNT>
0

> <PUBCHEM_MMFF94_ENERGY>
98.6242

> <PUBCHEM_MMFF94_PARTIAL_CHARGES>
35
1 -0.36
12 -0.18
13 0.08
14 -0.15
15 0.09
16 0.08
17 0.47
18 -0.14
19 -0.18
2 -0.36
20 0.28
21 0.03
22 -0.15
23 -0.15
24 -0.15
25 -0.15
26 0.08
27 0.15
3 -0.53
34 0.15
35 0.15
36 0.45
37 0.15
38 0.15
4 -0.57
42 0.15
43 0.15
44 0.15
45 0.15
46 0.45
5 -0.53
6 0.42
7 -0.29
8 0.03
9 0.08

> <PUBCHEM_PHARMACOPHORE_FEATURES>
9
1 1 acceptor
1 2 acceptor
1 3 donor
1 4 acceptor
1 5 donor
3 6 10 11 hydrophobe
6 1 6 7 8 9 12 rings
6 21 22 23 24 25 26 rings
6 8 9 13 14 15 16 rings

> <PUBCHEM_SHAPE_FINGERPRINT>
10 15 12823291317174802610
10674148 151 18261109656386096889
10692045 39 10015044010358879036
12236239 1 16200431394351409523
12422481 6 14261090743487137461
12596602 18 15913332407223100394
12616971 3 15339109127507952432
12760667 363 18343023289402546771
12788726 201 17749097851559624521
12954195 1 18260824857136470557
13140716 1 12606267620856912255
13402501 40 18343022198671296742
13533116 47 17560518508046123880
13540713 5 17170658991933243992
13668630 136 18272369788941098194
13673619 4 18272371966837391160
13685833 64 18131632292195821490
13782708 43 18342452643258224874
13914758 101 17131839746878761737
14251764 30 18272367581332715310
14294032 229 17533494535065740605
14347332 77 18188762839186990178
14508225 48 18113338626049065044
14556957 393 17023477360611604012
14849402 71 14691982801938289146
15183329 4 16660363675545574334
15475509 8 18260547819082509821
15510800 12 18341059613312979743
15575132 122 14056987313765988319
16994733 274 12468622929592786599
17492 89 17757553328565143971
17870717 6 18040718069378087147
1813 80 17274835670171542488
18643901 69 18337962198894025830
19784866 240 18201723967795817777
19958102 18 17240475876090280666
2026 5 18266741269614899226
21267235 1 17822291336542343531
21307412 95 18261954145925912783
21424621 283 8574444144176252023
21623969 137 17632297865692283582
21637258 2 17775279491185842731
2297311 6 18187365419620916861
23198884 109 15213018254108662779
23559900 14 17750232676192281805
2838139 119 12612743618820218982
2916195 48 9007066763969874043
3004659 81 17603304877706775892
335352 9 17967806164249575063
437815 12 18342174483848580321
5104073 3 13470105463099876070
56616090 284 18040435498936666273
59755656 215 18186799166970040210
6608658 132 15647047119066873038

> <PUBCHEM_SHAPE_MULTIPOLES>
505.72
17.24
2.58
1.58
16.11
2.05
0.16
-14.78
-4.45
-1.2
-0.94
-0.13
-0.08
1.46

> <PUBCHEM_SHAPE_SELFOVERLAP>
1102.423

> <PUBCHEM_SHAPE_VOLUME>
276.4

> <RelativeEnergy>
4.7376

> <StereoisomerIndex>
1

> <TautomerIndex>
3

> <POSE_NUMBER>
1

> <LibDockScore>
74.1947

> <HotSpots>
16.81,-2.53,-6.66,P,47,3
13.41,6.07,-3.65,P,65,5
20.61,-3.53,-8.65,A,34,7

> <-In-Situ Starting Energy>
-1068883.08

> <-In-Situ Final Energy>
0.365309627

> <In-Situ Gradient>
0.000996954734

> <Favorable Total>
8

> <Unfavorable Total>
0

> <Charge Total>
0

> <Hydrophobic Total>
5

> <HydrogenBond Total>
3

> <Other Total>
0

> <Favorable A:LYS6>
0

> <Favorable A:ARG55>
0

> <Favorable A:LEU58>
0

> <Favorable A:LEU61>
0

> <Favorable A:ILE62>
0

> <Favorable A:GLY64>
0

> <Favorable A:SER65>
0

> <Favorable A:TRP66>
0

> <Favorable A:SER69>
0

> <Favorable A:VAL70>
0

> <Favorable A:PRO73>
0

> <Favorable A:ALA74>
0

> <Favorable A:PHE76>
0

> <Favorable A:ALA77>
0

> <Favorable A:THR78>
0

> <Favorable A:GLU79>
0

> <Favorable A:PHE82>
0

> <Favorable A:ARG83>
0

> <Favorable A:LEU85>
0

> <Favorable A:THR86>
0

> <Favorable A:TRP89>
0

> <Favorable A:THR90>
0

> <Favorable A:ASN93>
0

> <Favorable A:HIS94>
0

> <Favorable A:SER96>
0

> <Favorable A:VAL97>
0

> <Favorable A:TRP98>
0

> <Favorable A:PHE140>
0

> <Favorable A:LEU141>
0

> <Favorable A:ASN144>
0

> <Favorable A:ILE148>
0

> <Favorable A:ILE150>
0

> <Favorable A:HIS151>
0

> <Favorable A:ILE152>
0

> <Favorable A:ALA154>
0

> <Favorable A:SER155>
0

> <Favorable A:ILE156>
0

> <Favorable A:GLY158>
0

> <Favorable A:TYR159>
0

> <Favorable A:ARG160>
0

> <Favorable A:ARG161>
0

> <Favorable A:ASN162>
0

> <Favorable A:LYS163>
0

> <Favorable A:SER167>
0

> <Favorable A:ASP168>
0

> <Favorable A:SER169>
0

> <Favorable A:ASN171>
0

> <Favorable A:PHE172>
0

> <Favorable A:THR173>
0

> <Favorable A:ARG174>
0

> <Favorable A:PHE175>
0

> <Favorable A:SER176>
0

> <Favorable A:SER177>
0

> <Favorable A:LEU178>
0

> <Favorable A:ILE179>
0

> <Favorable A:VAL180>
1

> <Favorable A:LEU181>
0

> <Favorable A:SER183>
2

> <Favorable A:THR184>
0

> <Favorable A:PHE186>
0

> <Favorable A:ILE187>
0

> <Favorable A:PHE188>
0

> <Favorable A:ILE189>
0

> <Favorable A:PRO190>
0

> <Favorable A:PHE191>
0

> <Favorable A:TYR240>
0

> <Favorable A:PHE243>
0

> <Favorable A:SER244>
0

> <Favorable A:PHE247>
1

> <Favorable A:PHE248>
0

> <Favorable A:VAL251>
1

> <Favorable A:TRP252>
0

> <Favorable A:SER254>
0

> <Favorable A:GLU255>
0

> <Favorable A:ARG256>
0

> <Favorable A:LEU257>
0

> <Favorable A:GLU258>
0

> <Favorable A:GLU259>
0

> <Favorable A:LEU261>
0

> <Favorable A:ILE262>
2

> <Favorable A:ILE263>
0

> <Favorable A:SER265>
1

> <Favorable A:GLN266>
0

> <Favorable A:MET268>
0

> <Favorable A:GLY269>
0

> <Favorable A:TYR272>
0

> <Favorable A:PRO273>
0

> <Unfavorable A:ARG55>
0

> <Unfavorable A:PRO73>
0

> <Unfavorable A:PHE76>
0

> <Unfavorable A:GLU79>
0

> <Unfavorable A:ARG83>
0

> <Unfavorable A:THR86>
0

> <Unfavorable A:TRP89>
0

> <Unfavorable A:THR90>
0

> <Unfavorable A:ASN93>
0

> <Unfavorable A:TRP98>
0

> <Unfavorable A:ASN144>
0

> <Unfavorable A:SER155>
0

> <Unfavorable A:GLY158>
0

> <Unfavorable A:TYR159>
0

> <Unfavorable A:ASN162>
0

> <Unfavorable A:ASP168>
0

> <Unfavorable A:ASN171>
0

> <Unfavorable A:THR173>
0

> <Unfavorable A:ARG174>
0

> <Unfavorable A:SER183>
0

> <Unfavorable A:THR184>
0

> <Unfavorable A:PHE186>
0

> <Unfavorable A:SER244>
0

> <Unfavorable A:SER254>
0

> <Unfavorable A:GLU255>
0

> <Unfavorable A:SER265>
0

> <Unfavorable A:GLN266>
0

> <Unfavorable A:GLY269>
0

> <Charge A:ARG55>
0

> <Charge A:PHE76>
0

> <Charge A:GLU79>
0

> <Charge A:PHE82>
0

> <Charge A:ARG83>
0

> <Charge A:TRP89>
0

> <Charge A:HIS94>
0

> <Charge A:TRP98>
0

> <Charge A:TYR159>
0

> <Charge A:ARG161>
0

> <Charge A:LYS163>
0

> <Charge A:ASP168>
0

> <Charge A:PHE172>
0

> <Charge A:ARG174>
0

> <Charge A:PHE175>
0

> <Charge A:PHE188>
0

> <Charge A:PHE247>
0

> <Charge A:PHE248>
0

> <Hydrophobic A:LEU58>
0

> <Hydrophobic A:LEU61>
0

> <Hydrophobic A:ILE62>
0

> <Hydrophobic A:TRP66>
0

> <Hydrophobic A:VAL70>
0

> <Hydrophobic A:PRO73>
0

> <Hydrophobic A:ALA74>
0

> <Hydrophobic A:PHE76>
0

> <Hydrophobic A:ALA77>
0

> <Hydrophobic A:THR78>
0

> <Hydrophobic A:PHE82>
0

> <Hydrophobic A:ARG83>
0

> <Hydrophobic A:LEU85>
0

> <Hydrophobic A:TRP89>
0

> <Hydrophobic A:THR90>
0

> <Hydrophobic A:ASN93>
0

> <Hydrophobic A:HIS94>
0

> <Hydrophobic A:VAL97>
0

> <Hydrophobic A:TRP98>
0

> <Hydrophobic A:PHE140>
0

> <Hydrophobic A:LEU141>
0

> <Hydrophobic A:ILE148>
0

> <Hydrophobic A:ILE150>
0

> <Hydrophobic A:HIS151>
0

> <Hydrophobic A:ILE152>
0

> <Hydrophobic A:ALA154>
0

> <Hydrophobic A:SER155>
0

> <Hydrophobic A:ILE156>
0

> <Hydrophobic A:GLY158>
0

> <Hydrophobic A:TYR159>
0

> <Hydrophobic A:ARG160>
0

> <Hydrophobic A:ARG161>
0

> <Hydrophobic A:ASP168>
0

> <Hydrophobic A:ASN171>
0

> <Hydrophobic A:PHE172>
0

> <Hydrophobic A:ARG174>
0

> <Hydrophobic A:PHE175>
0

> <Hydrophobic A:LEU178>
0

> <Hydrophobic A:ILE179>
0

> <Hydrophobic A:VAL180>
1

> <Hydrophobic A:LEU181>
0

> <Hydrophobic A:PHE186>
0

> <Hydrophobic A:ILE187>
0

> <Hydrophobic A:PHE188>
0

> <Hydrophobic A:ILE189>
0

> <Hydrophobic A:PRO190>
0

> <Hydrophobic A:PHE191>
0

> <Hydrophobic A:TYR240>
0

> <Hydrophobic A:PHE243>
0

> <Hydrophobic A:PHE247>
1

> <Hydrophobic A:PHE248>
0

> <Hydrophobic A:VAL251>
1

> <Hydrophobic A:TRP252>
0

> <Hydrophobic A:SER254>
0

> <Hydrophobic A:LEU261>
0

> <Hydrophobic A:ILE262>
2

> <Hydrophobic A:ILE263>
0

> <Hydrophobic A:TYR272>
0

> <Hydrophobic A:PRO273>
0

> <HydrogenBond A:LYS6>
0

> <HydrogenBond A:ARG55>
0

> <HydrogenBond A:GLY64>
0

> <HydrogenBond A:SER65>
0

> <HydrogenBond A:TRP66>
0

> <HydrogenBond A:SER69>
0

> <HydrogenBond A:PRO73>
0

> <HydrogenBond A:ALA74>
0

> <HydrogenBond A:PHE76>
0

> <HydrogenBond A:ALA77>
0

> <HydrogenBond A:THR78>
0

> <HydrogenBond A:GLU79>
0

> <HydrogenBond A:PHE82>
0

> <HydrogenBond A:ARG83>
0

> <HydrogenBond A:LEU85>
0

> <HydrogenBond A:THR86>
0

> <HydrogenBond A:TRP89>
0

> <HydrogenBond A:THR90>
0

> <HydrogenBond A:ASN93>
0

> <HydrogenBond A:HIS94>
0

> <HydrogenBond A:SER96>
0

> <HydrogenBond A:TRP98>
0

> <HydrogenBond A:ASN144>
0

> <HydrogenBond A:HIS151>
0

> <HydrogenBond A:ILE152>
0

> <HydrogenBond A:ALA154>
0

> <HydrogenBond A:SER155>
0

> <HydrogenBond A:ILE156>
0

> <HydrogenBond A:GLY158>
0

> <HydrogenBond A:TYR159>
0

> <HydrogenBond A:ASN162>
0

> <HydrogenBond A:LYS163>
0

> <HydrogenBond A:SER167>
0

> <HydrogenBond A:ASP168>
0

> <HydrogenBond A:SER169>
0

> <HydrogenBond A:ASN171>
0

> <HydrogenBond A:PHE172>
0

> <HydrogenBond A:THR173>
0

> <HydrogenBond A:ARG174>
0

> <HydrogenBond A:PHE175>
0

> <HydrogenBond A:SER176>
0

> <HydrogenBond A:SER177>
0

> <HydrogenBond A:ILE179>
0

> <HydrogenBond A:VAL180>
0

> <HydrogenBond A:SER183>
2

> <HydrogenBond A:THR184>
0

> <HydrogenBond A:PHE186>
0

> <HydrogenBond A:ILE187>
0

> <HydrogenBond A:PRO190>
0

> <HydrogenBond A:TYR240>
0

> <HydrogenBond A:PHE243>
0

> <HydrogenBond A:SER244>
0

> <HydrogenBond A:PHE247>
0

> <HydrogenBond A:VAL251>
0

> <HydrogenBond A:SER254>
0

> <HydrogenBond A:GLU255>
0

> <HydrogenBond A:ARG256>
0

> <HydrogenBond A:LEU257>
0

> <HydrogenBond A:GLU258>
0

> <HydrogenBond A:GLU259>
0

> <HydrogenBond A:ILE262>
0

> <HydrogenBond A:SER265>
1

> <HydrogenBond A:GLN266>
0

> <HydrogenBond A:MET268>
0

> <HydrogenBond A:GLY269>
0

> <HydrogenBond A:PRO273>
0

> <Other A:SER69>
0

> <Other A:TRP89>
0

> <Other A:TYR159>
0

> <Other A:PHE172>
0

> <Other A:SER176>
0

> <Other A:SER265>
0

$$$$
11258152
  SciTegic09122300493D

 55 56  0  0  0  0            999 V2000
    8.4706    3.6288  -12.9048 O   0  0  0  1  0  0
   11.1574    3.8543  -13.7986 O   0  0  0  1  0  0
   12.0638    2.1908   -9.8965 O   0  0  0  1  0  0
   13.7815    2.9789  -14.2519 O   0  0  0  1  0  0
   15.8759    5.0320  -10.4100 O   0  0  0  1  0  0
   14.2960    5.4197   -8.3926 O   0  0  0  1  0  0
   13.8742    4.5307   -2.4810 O   0  0  0  1  0  0
    9.2728    2.4744  -13.0700 C   0  0  0  1  0  0
   10.6998    2.9620  -12.7911 C   0  0  1  1  0  0
   11.7526    1.8528  -12.6218 C   0  0  0  1  0  0
    9.1428    1.9880  -14.5059 C   0  0  0  1  0  0
    8.8921    1.3845  -12.0590 C   0  0  0  1  0  0
   12.9675    2.5277  -12.0621 C   0  0  0  1  0  0
   12.9810    2.8278  -10.7139 C   0  0  0  1  0  0
   13.9325    3.0801  -12.8859 C   0  0  0  1  0  0
   13.7926    3.8597  -10.2495 C   0  0  0  1  0  0
    7.1183    3.5424  -13.3028 C   0  0  0  1  0  0
   14.9726    3.8211  -12.3391 C   0  0  0  1  0  0
   14.8971    4.2424  -11.0134 C   0  0  0  1  0  0
   13.4032    4.6339   -9.0531 C   0  0  0  1  0  0
   12.1254    4.6206   -8.6269 C   0  0  0  1  0  0
   16.4779    6.0215  -11.2176 C   0  0  0  1  0  0
   11.7061    5.2210   -7.3647 C   0  0  0  1  0  0
   12.2122    4.9187   -6.1575 C   0  0  0  1  0  0
   11.7116    5.6208   -4.9752 C   0  0  0  1  0  0
   13.3180    3.9670   -5.9329 C   0  0  0  1  0  0
   12.3571    5.5813   -3.7988 C   0  0  0  1  0  0
   13.9294    3.8388   -4.7400 C   0  0  0  1  0  0
   13.4652    4.6478   -3.5925 C   0  0  0  1  0  0
   10.5012    4.5412  -13.9043 H   0  0
   12.4701    2.0031   -9.0588 H   0  0
   12.9106    3.3244  -14.4633 H   0  0
   14.9876    5.6600   -8.9924 H   0  0
   10.6463    3.5043  -11.8385 H   0  0
   11.9637    1.3188  -13.5482 H   0  0
   11.4337    1.0932  -11.9107 H   0  0
    9.2444    2.8206  -15.1893 H   0  0
    8.1740    1.5470  -14.7204 H   0  0
    9.9199    1.2581  -14.7089 H   0  0
    7.8298    1.1534  -12.0596 H   0  0
    9.1914    1.6846  -11.0568 H   0  0
    9.4128    0.4503  -12.2612 H   0  0
    6.6137    2.7335  -12.7880 H   0  0
    7.0279    3.3763  -14.3693 H   0  0
    6.5937    4.4687  -13.0893 H   0  0
   15.7892    4.1311  -12.9700 H   0  0
   11.3031    4.2068   -9.1815 H   0  0
   15.7214    6.7021  -11.6061 H   0  0
   17.0655    5.5879  -12.0267 H   0  0
   17.1582    6.6103  -10.6046 H   0  0
   10.9303    5.9528   -7.4627 H   0  0
   10.8146    6.1991   -5.0945 H   0  0
   13.6476    3.3683   -6.7600 H   0  0
   12.0979    6.2193   -2.9892 H   0  0
   14.7478    3.1599   -4.6165 H   0  0
  1  8  1  0
  1 17  1  0
  2  9  1  0
  3 14  1  0
  4 15  1  0
  5 19  1  0
  5 22  1  0
  6 20  1  0
  7 29  2  0
  8  9  1  0
  8 11  1  0
  8 12  1  0
  9 10  1  0
 10 13  1  0
 13 14  2  0
 13 15  1  0
 14 16  1  0
 15 18  2  0
 16 19  2  0
 16 20  1  0
 18 19  1  0
 20 21  2  0
 21 23  1  0
 23 24  2  0
 24 25  1  0
 24 26  1  0
 25 27  2  0
 26 28  2  0
 27 29  1  0
 28 29  1  0
  2 30  1  0
  3 31  1  0
  4 32  1  0
  6 33  1  0
  9 34  1  0
 10 35  1  0
 10 36  1  0
 11 37  1  0
 11 38  1  0
 11 39  1  0
 12 40  1  0
 12 41  1  0
 12 42  1  0
 17 43  1  0
 17 44  1  0
 17 45  1  0
 18 46  1  0
 21 47  1  0
 22 48  1  0
 22 49  1  0
 22 50  1  0
 23 51  1  0
 25 52  1  0
 26 53  1  0
 27 54  1  0
 28 55  1  0
M  END
> <Name>
11258152

> <Binding Energy>
-0.3987

> <Ligand Energy>
16.3161

> <Protein Energy>
-7801.1566

> <Complex Energy>
-7785.2393

> <Complex Entropy>
-31.4856

> <Protein Entropy>
-31.4717

> <Ligand Entropy>
-20.2856

> <Entropic Energy>
20.2717

> <AbsoluteEnergy>
64.9735

> <ConfNumber>
24

> <Ionization pH>
7.5

> <IonizationIndex>
1

> <MOL_NUMBER>
510

> <NumberOfIonizations>
1

> <NumberOfStereoisomers>
1

> <NumberOfTautomers>
4

> <PUBCHEM_ATOM_DEF_STEREO_COUNT>
0

> <PUBCHEM_ATOM_UDEF_STEREO_COUNT>
1

> <PUBCHEM_BOND_DEF_STEREO_COUNT>
1

> <PUBCHEM_BOND_UDEF_STEREO_COUNT>
0

> <PUBCHEM_CACTVS_TAUTO_COUNT>
57

> <PUBCHEM_COMPONENT_COUNT>
1

> <PUBCHEM_COMPOUND_CID>
11258152

> <PUBCHEM_CONFORMER_DIVERSEORDER>
15
104
59
53
113
37
18
108
30
111
90
77
96
34
84
42
6
103
95
66
112
16
75
76
98
22
33
86
85
107
72
52
82
48
20
49
81
89
99
80
7
11
55
87
100
74
70
54
58
38
92
61
25
46
12
91
57
109
67
8
110
4
41
114
64
47
24
10
94
62
44
17
3
45
63
71
93
14
28
83
35
50
1
73
106
32
88
39
13
101
102
97
105
43
79
36
29
31
9
60
56
65
27
26
69
5
68
19
40
51
21
23
78
2

> <PUBCHEM_CONFORMER_ID>
00ABC9280000000F

> <PUBCHEM_CONFORMER_RMSD>
1

> <PUBCHEM_COORDINATE_TYPE>
2
5
10

> <PUBCHEM_EFFECTIVE_ROTOR_COUNT>
8

> <PUBCHEM_FEATURE_SELFOVERLAP>
55.827

> <PUBCHEM_HEAVY_ATOM_COUNT>
29

> <PUBCHEM_ISOTOPIC_ATOM_COUNT>
0

> <PUBCHEM_MMFF94_ENERGY>
115.2331

> <PUBCHEM_MMFF94_PARTIAL_CHARGES>
38
1 -0.56
10 0.14
13 -0.14
14 0.08
15 0.08
16 0.09
17 0.28
18 -0.15
19 0.08
2 -0.68
20 0.47
21 -0.14
22 0.28
23 -0.18
24 0.03
25 -0.15
26 -0.15
27 -0.15
28 -0.15
29 0.08
3 -0.53
39 0.4
4 -0.53
43 0.15
44 0.45
45 0.45
46 0.15
5 -0.36
50 0.15
51 0.15
52 0.15
53 0.15
54 0.15
55 0.45
6 -0.57
7 -0.53
8 0.28
9 0.28

> <PUBCHEM_PHARMACOPHORE_FEATURES>
11
1 1 acceptor
1 2 acceptor
1 2 donor
1 3 donor
1 4 donor
1 5 acceptor
1 6 acceptor
1 7 donor
3 8 11 12 hydrophobe
6 13 14 15 16 18 19 rings
6 24 25 26 27 28 29 rings

> <PUBCHEM_SHAPE_FINGERPRINT>
10369192 42 18411708703006077773
105312 117 18273215322093689998
10670039 82 18341606066069215316
12107183 9 18263632997349861690
12293681 160 17775284950105159666
12422481 6 17386001724509358284
12760667 363 9367340440746008841
12788726 201 18194666271694027619
12895836 83 18342453746785173889
12895837 130 18336272357039163436
13103583 49 11386363690816509007
13540713 5 18198602381803790231
13885169 86 18260555536632682892
14251764 75 18410294687897648688
14294032 229 18272656796347291603
14713325 29 18409730707632299811
14790565 3 18408602574152344612
14840074 17 18113902645428347909
14849402 71 18050856507026205811
14950920 106 12685090393332838596
15064981 113 17988371455505418636
15064981 194 17753904010326836846
15163728 17 18412549794788653454
15198563 99 18055625381609674863
15297060 5 18272936011722682224
15357212 105 17270618863239288433
15575132 122 18411140263883953041
16126227 98 18341898493698360401
16992828 155 18187355536865000213
17780758 139 8790622385404244334
18785283 64 18050845516452847567
20775438 99 11203141695897796769
21756936 100 18187366596864040626
23559900 14 17630032763727286823
24771750 20 18059020475367801591
2838139 119 18261104128393869460
3388396 114 17187564382653152500
3411729 13 18262520269300119963
3552219 110 17897446327550071343
38570 142 18260276218008480034
4015057 19 14764062441352075082
4058900 60 18334852810065552866
437795 70 15410898405768983377
474113 269 10953748833042114769
484985 159 9295297127547900937
5219985 13 18410573981188884254
57724786 102 18263638459577473587
6034566 193 18411705378706613449
6327066 14 18409726227812553093
636775 72 17975695306245965060
7808743 9 18412258428712899147

> <PUBCHEM_SHAPE_MULTIPOLES>
555.72
16.51
5.12
1.41
14.52
2.67
-0.11
-23.81
1.98
-2.28
1.31
-0.27
0.02
-2.76

> <PUBCHEM_SHAPE_SELFOVERLAP>
1178.142

> <PUBCHEM_SHAPE_VOLUME>
311.6

> <RelativeEnergy>
11.5153

> <StereoisomerIndex>
1

> <TautomerIndex>
2

> <POSE_NUMBER>
1

> <LibDockScore>
93.9486

> <HotSpots>
7.21,2.27,-14.26,A,20,17
16.61,6.47,-11.46,A,30,22
13.41,5.07,-3.25,A,44,27

> <-In-Situ Starting Energy>
-677.778213

> <-In-Situ Final Energy>
9.86672625

> <In-Situ Gradient>
0.0009879063761

> <Favorable Total>
9

> <Unfavorable Total>
0

> <Charge Total>
0

> <Hydrophobic Total>
6

> <HydrogenBond Total>
3

> <Other Total>
0

> <Favorable A:LYS6>
0

> <Favorable A:ARG55>
0

> <Favorable A:LEU58>
0

> <Favorable A:LEU61>
0

> <Favorable A:ILE62>
0

> <Favorable A:GLY64>
0

> <Favorable A:SER65>
0

> <Favorable A:TRP66>
0

> <Favorable A:SER69>
0

> <Favorable A:VAL70>
0

> <Favorable A:PRO73>
0

> <Favorable A:ALA74>
0

> <Favorable A:PHE76>
1

> <Favorable A:ALA77>
0

> <Favorable A:THR78>
0

> <Favorable A:GLU79>
0

> <Favorable A:PHE82>
0

> <Favorable A:ARG83>
0

> <Favorable A:LEU85>
2

> <Favorable A:THR86>
0

> <Favorable A:TRP89>
2

> <Favorable A:THR90>
0

> <Favorable A:ASN93>
0

> <Favorable A:HIS94>
0

> <Favorable A:SER96>
0

> <Favorable A:VAL97>
0

> <Favorable A:TRP98>
0

> <Favorable A:PHE140>
0

> <Favorable A:LEU141>
0

> <Favorable A:ASN144>
0

> <Favorable A:ILE148>
0

> <Favorable A:ILE150>
0

> <Favorable A:HIS151>
0

> <Favorable A:ILE152>
0

> <Favorable A:ALA154>
0

> <Favorable A:SER155>
0

> <Favorable A:ILE156>
0

> <Favorable A:GLY158>
0

> <Favorable A:TYR159>
0

> <Favorable A:ARG160>
0

> <Favorable A:ARG161>
0

> <Favorable A:ASN162>
0

> <Favorable A:LYS163>
0

> <Favorable A:SER167>
0

> <Favorable A:ASP168>
0

> <Favorable A:SER169>
0

> <Favorable A:ASN171>
0

> <Favorable A:PHE172>
0

> <Favorable A:THR173>
0

> <Favorable A:ARG174>
0

> <Favorable A:PHE175>
0

> <Favorable A:SER176>
1

> <Favorable A:SER177>
0

> <Favorable A:LEU178>
0

> <Favorable A:ILE179>
0

> <Favorable A:VAL180>
1

> <Favorable A:LEU181>
0

> <Favorable A:SER183>
0

> <Favorable A:THR184>
1

> <Favorable A:PHE186>
0

> <Favorable A:ILE187>
0

> <Favorable A:PHE188>
0

> <Favorable A:ILE189>
0

> <Favorable A:PRO190>
0

> <Favorable A:PHE191>
0

> <Favorable A:TYR240>
0

> <Favorable A:PHE243>
0

> <Favorable A:SER244>
0

> <Favorable A:PHE247>
0

> <Favorable A:PHE248>
0

> <Favorable A:VAL251>
1

> <Favorable A:TRP252>
0

> <Favorable A:SER254>
0

> <Favorable A:GLU255>
0

> <Favorable A:ARG256>
0

> <Favorable A:LEU257>
0

> <Favorable A:GLU258>
0

> <Favorable A:GLU259>
0

> <Favorable A:LEU261>
0

> <Favorable A:ILE262>
0

> <Favorable A:ILE263>
0

> <Favorable A:SER265>
0

> <Favorable A:GLN266>
0

> <Favorable A:MET268>
0

> <Favorable A:GLY269>
0

> <Favorable A:TYR272>
0

> <Favorable A:PRO273>
0

> <Unfavorable A:ARG55>
0

> <Unfavorable A:PRO73>
0

> <Unfavorable A:PHE76>
0

> <Unfavorable A:GLU79>
0

> <Unfavorable A:ARG83>
0

> <Unfavorable A:THR86>
0

> <Unfavorable A:TRP89>
0

> <Unfavorable A:THR90>
0

> <Unfavorable A:ASN93>
0

> <Unfavorable A:TRP98>
0

> <Unfavorable A:ASN144>
0

> <Unfavorable A:SER155>
0

> <Unfavorable A:GLY158>
0

> <Unfavorable A:TYR159>
0

> <Unfavorable A:ASN162>
0

> <Unfavorable A:ASP168>
0

> <Unfavorable A:ASN171>
0

> <Unfavorable A:THR173>
0

> <Unfavorable A:ARG174>
0

> <Unfavorable A:SER183>
0

> <Unfavorable A:THR184>
0

> <Unfavorable A:PHE186>
0

> <Unfavorable A:SER244>
0

> <Unfavorable A:SER254>
0

> <Unfavorable A:GLU255>
0

> <Unfavorable A:SER265>
0

> <Unfavorable A:GLN266>
0

> <Unfavorable A:GLY269>
0

> <Charge A:ARG55>
0

> <Charge A:PHE76>
0

> <Charge A:GLU79>
0

> <Charge A:PHE82>
0

> <Charge A:ARG83>
0

> <Charge A:TRP89>
0

> <Charge A:HIS94>
0

> <Charge A:TRP98>
0

> <Charge A:TYR159>
0

> <Charge A:ARG161>
0

> <Charge A:LYS163>
0

> <Charge A:ASP168>
0

> <Charge A:PHE172>
0

> <Charge A:ARG174>
0

> <Charge A:PHE175>
0

> <Charge A:PHE188>
0

> <Charge A:PHE247>
0

> <Charge A:PHE248>
0

> <Hydrophobic A:LEU58>
0

> <Hydrophobic A:LEU61>
0

> <Hydrophobic A:ILE62>
0

> <Hydrophobic A:TRP66>
0

> <Hydrophobic A:VAL70>
0

> <Hydrophobic A:PRO73>
0

> <Hydrophobic A:ALA74>
0

> <Hydrophobic A:PHE76>
1

> <Hydrophobic A:ALA77>
0

> <Hydrophobic A:THR78>
0

> <Hydrophobic A:PHE82>
0

> <Hydrophobic A:ARG83>
0

> <Hydrophobic A:LEU85>
1

> <Hydrophobic A:TRP89>
2

> <Hydrophobic A:THR90>
0

> <Hydrophobic A:ASN93>
0

> <Hydrophobic A:HIS94>
0

> <Hydrophobic A:VAL97>
0

> <Hydrophobic A:TRP98>
0

> <Hydrophobic A:PHE140>
0

> <Hydrophobic A:LEU141>
0

> <Hydrophobic A:ILE148>
0

> <Hydrophobic A:ILE150>
0

> <Hydrophobic A:HIS151>
0

> <Hydrophobic A:ILE152>
0

> <Hydrophobic A:ALA154>
0

> <Hydrophobic A:SER155>
0

> <Hydrophobic A:ILE156>
0

> <Hydrophobic A:GLY158>
0

> <Hydrophobic A:TYR159>
0

> <Hydrophobic A:ARG160>
0

> <Hydrophobic A:ARG161>
0

> <Hydrophobic A:ASP168>
0

> <Hydrophobic A:ASN171>
0

> <Hydrophobic A:PHE172>
0

> <Hydrophobic A:ARG174>
0

> <Hydrophobic A:PHE175>
0

> <Hydrophobic A:LEU178>
0

> <Hydrophobic A:ILE179>
0

> <Hydrophobic A:VAL180>
1

> <Hydrophobic A:LEU181>
0

> <Hydrophobic A:PHE186>
0

> <Hydrophobic A:ILE187>
0

> <Hydrophobic A:PHE188>
0

> <Hydrophobic A:ILE189>
0

> <Hydrophobic A:PRO190>
0

> <Hydrophobic A:PHE191>
0

> <Hydrophobic A:TYR240>
0

> <Hydrophobic A:PHE243>
0

> <Hydrophobic A:PHE247>
0

> <Hydrophobic A:PHE248>
0

> <Hydrophobic A:VAL251>
1

> <Hydrophobic A:TRP252>
0

> <Hydrophobic A:SER254>
0

> <Hydrophobic A:LEU261>
0

> <Hydrophobic A:ILE262>
0

> <Hydrophobic A:ILE263>
0

> <Hydrophobic A:TYR272>
0

> <Hydrophobic A:PRO273>
0

> <HydrogenBond A:LYS6>
0

> <HydrogenBond A:ARG55>
0

> <HydrogenBond A:GLY64>
0

> <HydrogenBond A:SER65>
0

> <HydrogenBond A:TRP66>
0

> <HydrogenBond A:SER69>
0

> <HydrogenBond A:PRO73>
0

> <HydrogenBond A:ALA74>
0

> <HydrogenBond A:PHE76>
0

> <HydrogenBond A:ALA77>
0

> <HydrogenBond A:THR78>
0

> <HydrogenBond A:GLU79>
0

> <HydrogenBond A:PHE82>
0

> <HydrogenBond A:ARG83>
0

> <HydrogenBond A:LEU85>
1

> <HydrogenBond A:THR86>
0

> <HydrogenBond A:TRP89>
0

> <HydrogenBond A:THR90>
0

> <HydrogenBond A:ASN93>
0

> <HydrogenBond A:HIS94>
0

> <HydrogenBond A:SER96>
0

> <HydrogenBond A:TRP98>
0

> <HydrogenBond A:ASN144>
0

> <HydrogenBond A:HIS151>
0

> <HydrogenBond A:ILE152>
0

> <HydrogenBond A:ALA154>
0

> <HydrogenBond A:SER155>
0

> <HydrogenBond A:ILE156>
0

> <HydrogenBond A:GLY158>
0

> <HydrogenBond A:TYR159>
0

> <HydrogenBond A:ASN162>
0

> <HydrogenBond A:LYS163>
0

> <HydrogenBond A:SER167>
0

> <HydrogenBond A:ASP168>
0

> <HydrogenBond A:SER169>
0

> <HydrogenBond A:ASN171>
0

> <HydrogenBond A:PHE172>
0

> <HydrogenBond A:THR173>
0

> <HydrogenBond A:ARG174>
0

> <HydrogenBond A:PHE175>
0

> <HydrogenBond A:SER176>
1

> <HydrogenBond A:SER177>
0

> <HydrogenBond A:ILE179>
0

> <HydrogenBond A:VAL180>
0

> <HydrogenBond A:SER183>
0

> <HydrogenBond A:THR184>
1

> <HydrogenBond A:PHE186>
0

> <HydrogenBond A:ILE187>
0

> <HydrogenBond A:PRO190>
0

> <HydrogenBond A:TYR240>
0

> <HydrogenBond A:PHE243>
0

> <HydrogenBond A:SER244>
0

> <HydrogenBond A:PHE247>
0

> <HydrogenBond A:VAL251>
0

> <HydrogenBond A:SER254>
0

> <HydrogenBond A:GLU255>
0

> <HydrogenBond A:ARG256>
0

> <HydrogenBond A:LEU257>
0

> <HydrogenBond A:GLU258>
0

> <HydrogenBond A:GLU259>
0

> <HydrogenBond A:ILE262>
0

> <HydrogenBond A:SER265>
0

> <HydrogenBond A:GLN266>
0

> <HydrogenBond A:MET268>
0

> <HydrogenBond A:GLY269>
0

> <HydrogenBond A:PRO273>
0

> <Other A:SER69>
0

> <Other A:TRP89>
0

> <Other A:TYR159>
0

> <Other A:PHE172>
0

> <Other A:SER176>
0

> <Other A:SER265>
0

$$$$
11902953
  SciTegic09122300493D

 24 25  0  0  0  0            999 V2000
    6.7444    0.5856    3.5156 O   0  0  0  1  0  0
    4.2080    1.4541   -0.7873 O   0  0  0  1  0  0
    6.8654    0.3563    1.2900 N   0  0  0  1  0  0
    4.9820    2.2783    1.1662 N   0  0  0  1  0  0
    6.4247    0.7672   -0.0388 C   0  0  1  1  0  0
    6.2806   -0.5538   -0.7752 C   0  0  0  1  0  0
    7.2186   -1.0306    1.4165 C   0  0  0  1  0  0
    7.1827   -1.5276    0.0017 C   0  0  0  1  0  0
    6.0507    2.4190    2.1392 C   0  0  1  1  0  0
    6.6199    1.0440    2.4021 C   0  0  0  1  0  0
    5.1064    1.5643    0.0341 C   0  0  0  1  0  0
    7.1132    3.4220    1.6936 C   0  0  0  1  0  0
    4.1192    2.7281    1.3579 H   0  0
    7.1982    1.3759   -0.5065 H   0  0
    5.2535   -0.9140   -0.7369 H   0  0
    6.5406   -0.4433   -1.8269 H   0  0
    6.4431   -1.5084    1.9987 H   0  0
    8.1843   -1.1655    1.9032 H   0  0
    8.2158   -1.4853   -0.3419 H   0  0
    6.8122   -2.5472   -0.0535 H   0  0
    5.5868    2.7822    3.0460 H   0  0
    6.6544    4.3997    1.5845 H   0  0
    7.5798    3.1617    0.7446 H   0  0
    7.9048    3.5129    2.4385 H   0  0
  1 10  2  0
  2 11  2  0
  3  5  1  0
  3  7  1  0
  3 10  1  0
  4  9  1  0
  4 11  1  0
  5  6  1  0
  5 11  1  0
  6  8  1  0
  7  8  1  0
  9 10  1  0
  9 12  1  0
  4 13  1  0
  5 14  1  0
  6 15  1  0
  6 16  1  0
  7 17  1  0
  7 18  1  0
  8 19  1  0
  8 20  1  0
  9 21  1  0
 12 22  1  0
 12 23  1  0
 12 24  1  0
M  END
> <Name>
11902953

> <Binding Energy>
-6.371

> <Ligand Energy>
15.1732

> <Protein Energy>
-7801.1566

> <Complex Energy>
-7792.3544

> <Complex Entropy>
-31.4761

> <Protein Entropy>
-31.4717

> <Ligand Entropy>
-17.5972

> <Entropic Energy>
17.5929

> <AbsoluteEnergy>
16.3814

> <ConfNumber>
2

> <IonizationIndex>
1

> <MOL_NUMBER>
521

> <NumberOfIonizations>
1

> <NumberOfStereoisomers>
1

> <NumberOfTautomers>
1

> <PUBCHEM_ATOM_DEF_STEREO_COUNT>
2

> <PUBCHEM_ATOM_UDEF_STEREO_COUNT>
0

> <PUBCHEM_BOND_DEF_STEREO_COUNT>
0

> <PUBCHEM_BOND_UDEF_STEREO_COUNT>
0

> <PUBCHEM_CACTVS_TAUTO_COUNT>
2

> <PUBCHEM_COMPONENT_COUNT>
1

> <PUBCHEM_COMPOUND_CID>
11902953

> <PUBCHEM_CONFORMER_DIVERSEORDER>
1

> <PUBCHEM_CONFORMER_ID>
00B59FE900000001

> <PUBCHEM_CONFORMER_RMSD>
0.4

> <PUBCHEM_COORDINATE_TYPE>
2
5
10

> <PUBCHEM_EFFECTIVE_ROTOR_COUNT>
1

> <PUBCHEM_FEATURE_SELFOVERLAP>
25.467

> <PUBCHEM_HEAVY_ATOM_COUNT>
12

> <PUBCHEM_ISOTOPIC_ATOM_COUNT>
0

> <PUBCHEM_MMFF94_ENERGY>
37.9414

> <PUBCHEM_MMFF94_PARTIAL_CHARGES>
10
1 -0.57
10 0.57
11 0.57
2 -0.57
21 0.37
3 -0.66
4 -0.73
5 0.36
7 0.3
9 0.36

> <PUBCHEM_PHARMACOPHORE_FEATURES>
5
1 1 acceptor
1 2 acceptor
1 4 donor
5 3 5 6 7 8 rings
6 3 4 5 9 10 11 rings

> <PUBCHEM_SHAPE_FINGERPRINT>
10353120 184 18268732604322927876
12423570 1 17271422622685013095
12897270 3 18335703861886869358
14761567 1 18335979783454990071
16945 1 18408602560940102773
18185500 45 18410006602844677307
193761 8 18122902027942031104
20645477 70 17840297050317269295
20711985 344 17986407584859810868
21040471 1 18334569144449026111
23419403 2 15811906715709324128
23552423 10 18115307743926070563
23559900 14 18413113866783145164
241688 4 17903629683747213208
2748010 2 17614559667623102735
353137 74 18336278846591913636
4369600 1 18338802320219311236
5084963 1 17842000184547142939
66348 1 18411696578097012715

> <PUBCHEM_SHAPE_MULTIPOLES>
225.25
3.2
2.29
0.85
0.58
0.54
0.19
-0.67
0.83
-0.04
-0.6
-0.34
0
0.01

> <PUBCHEM_SHAPE_SELFOVERLAP>
471.313

> <PUBCHEM_SHAPE_VOLUME>
128

> <RelativeEnergy>
2.6399

> <StereoisomerIndex>
1

> <TautomerIndex>
1

> <POSE_NUMBER>
1

> <LibDockScore>
74.4815

> <HotSpots>
4.81,0.47,-1.05,A,56,6
6.61,-0.93,-0.06,A,65,7
7.81,2.67,0.94,A,73,9

> <-In-Situ Starting Energy>
-162.105596

> <-In-Situ Final Energy>
5.32234746

> <In-Situ Gradient>
0.0009777484156

> <Favorable Total>
7

> <Unfavorable Total>
1

> <Charge Total>
0

> <Hydrophobic Total>
2

> <HydrogenBond Total>
5

> <Other Total>
0

> <Favorable A:LYS6>
0

> <Favorable A:ARG55>
2

> <Favorable A:LEU58>
0

> <Favorable A:LEU61>
0

> <Favorable A:ILE62>
0

> <Favorable A:GLY64>
0

> <Favorable A:SER65>
0

> <Favorable A:TRP66>
0

> <Favorable A:SER69>
0

> <Favorable A:VAL70>
0

> <Favorable A:PRO73>
0

> <Favorable A:ALA74>
0

> <Favorable A:PHE76>
0

> <Favorable A:ALA77>
0

> <Favorable A:THR78>
0

> <Favorable A:GLU79>
0

> <Favorable A:PHE82>
0

> <Favorable A:ARG83>
0

> <Favorable A:LEU85>
0

> <Favorable A:THR86>
0

> <Favorable A:TRP89>
0

> <Favorable A:THR90>
0

> <Favorable A:ASN93>
0

> <Favorable A:HIS94>
0

> <Favorable A:SER96>
0

> <Favorable A:VAL97>
0

> <Favorable A:TRP98>
0

> <Favorable A:PHE140>
0

> <Favorable A:LEU141>
0

> <Favorable A:ASN144>
0

> <Favorable A:ILE148>
0

> <Favorable A:ILE150>
0

> <Favorable A:HIS151>
0

> <Favorable A:ILE152>
0

> <Favorable A:ALA154>
0

> <Favorable A:SER155>
0

> <Favorable A:ILE156>
0

> <Favorable A:GLY158>
0

> <Favorable A:TYR159>
0

> <Favorable A:ARG160>
0

> <Favorable A:ARG161>
0

> <Favorable A:ASN162>
0

> <Favorable A:LYS163>
0

> <Favorable A:SER167>
0

> <Favorable A:ASP168>
0

> <Favorable A:SER169>
0

> <Favorable A:ASN171>
0

> <Favorable A:PHE172>
0

> <Favorable A:THR173>
0

> <Favorable A:ARG174>
0

> <Favorable A:PHE175>
0

> <Favorable A:SER176>
0

> <Favorable A:SER177>
0

> <Favorable A:LEU178>
0

> <Favorable A:ILE179>
0

> <Favorable A:VAL180>
0

> <Favorable A:LEU181>
0

> <Favorable A:SER183>
0

> <Favorable A:THR184>
0

> <Favorable A:PHE186>
0

> <Favorable A:ILE187>
0

> <Favorable A:PHE188>
0

> <Favorable A:ILE189>
0

> <Favorable A:PRO190>
0

> <Favorable A:PHE191>
0

> <Favorable A:TYR240>
0

> <Favorable A:PHE243>
1

> <Favorable A:SER244>
2

> <Favorable A:PHE247>
1

> <Favorable A:PHE248>
0

> <Favorable A:VAL251>
0

> <Favorable A:TRP252>
0

> <Favorable A:SER254>
0

> <Favorable A:GLU255>
0

> <Favorable A:ARG256>
0

> <Favorable A:LEU257>
0

> <Favorable A:GLU258>
0

> <Favorable A:GLU259>
0

> <Favorable A:LEU261>
0

> <Favorable A:ILE262>
0

> <Favorable A:ILE263>
0

> <Favorable A:SER265>
0

> <Favorable A:GLN266>
0

> <Favorable A:MET268>
0

> <Favorable A:GLY269>
0

> <Favorable A:TYR272>
1

> <Favorable A:PRO273>
0

> <Unfavorable A:ARG55>
1

> <Unfavorable A:PRO73>
0

> <Unfavorable A:PHE76>
0

> <Unfavorable A:GLU79>
0

> <Unfavorable A:ARG83>
0

> <Unfavorable A:THR86>
0

> <Unfavorable A:TRP89>
0

> <Unfavorable A:THR90>
0

> <Unfavorable A:ASN93>
0

> <Unfavorable A:TRP98>
0

> <Unfavorable A:ASN144>
0

> <Unfavorable A:SER155>
0

> <Unfavorable A:GLY158>
0

> <Unfavorable A:TYR159>
0

> <Unfavorable A:ASN162>
0

> <Unfavorable A:ASP168>
0

> <Unfavorable A:ASN171>
0

> <Unfavorable A:THR173>
0

> <Unfavorable A:ARG174>
0

> <Unfavorable A:SER183>
0

> <Unfavorable A:THR184>
0

> <Unfavorable A:PHE186>
0

> <Unfavorable A:SER244>
0

> <Unfavorable A:SER254>
0

> <Unfavorable A:GLU255>
0

> <Unfavorable A:SER265>
0

> <Unfavorable A:GLN266>
0

> <Unfavorable A:GLY269>
0

> <Charge A:ARG55>
0

> <Charge A:PHE76>
0

> <Charge A:GLU79>
0

> <Charge A:PHE82>
0

> <Charge A:ARG83>
0

> <Charge A:TRP89>
0

> <Charge A:HIS94>
0

> <Charge A:TRP98>
0

> <Charge A:TYR159>
0

> <Charge A:ARG161>
0

> <Charge A:LYS163>
0

> <Charge A:ASP168>
0

> <Charge A:PHE172>
0

> <Charge A:ARG174>
0

> <Charge A:PHE175>
0

> <Charge A:PHE188>
0

> <Charge A:PHE247>
0

> <Charge A:PHE248>
0

> <Hydrophobic A:LEU58>
0

> <Hydrophobic A:LEU61>
0

> <Hydrophobic A:ILE62>
0

> <Hydrophobic A:TRP66>
0

> <Hydrophobic A:VAL70>
0

> <Hydrophobic A:PRO73>
0

> <Hydrophobic A:ALA74>
0

> <Hydrophobic A:PHE76>
0

> <Hydrophobic A:ALA77>
0

> <Hydrophobic A:THR78>
0

> <Hydrophobic A:PHE82>
0

> <Hydrophobic A:ARG83>
0

> <Hydrophobic A:LEU85>
0

> <Hydrophobic A:TRP89>
0

> <Hydrophobic A:THR90>
0

> <Hydrophobic A:ASN93>
0

> <Hydrophobic A:HIS94>
0

> <Hydrophobic A:VAL97>
0

> <Hydrophobic A:TRP98>
0

> <Hydrophobic A:PHE140>
0

> <Hydrophobic A:LEU141>
0

> <Hydrophobic A:ILE148>
0

> <Hydrophobic A:ILE150>
0

> <Hydrophobic A:HIS151>
0

> <Hydrophobic A:ILE152>
0

> <Hydrophobic A:ALA154>
0

> <Hydrophobic A:SER155>
0

> <Hydrophobic A:ILE156>
0

> <Hydrophobic A:GLY158>
0

> <Hydrophobic A:TYR159>
0

> <Hydrophobic A:ARG160>
0

> <Hydrophobic A:ARG161>
0

> <Hydrophobic A:ASP168>
0

> <Hydrophobic A:ASN171>
0

> <Hydrophobic A:PHE172>
0

> <Hydrophobic A:ARG174>
0

> <Hydrophobic A:PHE175>
0

> <Hydrophobic A:LEU178>
0

> <Hydrophobic A:ILE179>
0

> <Hydrophobic A:VAL180>
0

> <Hydrophobic A:LEU181>
0

> <Hydrophobic A:PHE186>
0

> <Hydrophobic A:ILE187>
0

> <Hydrophobic A:PHE188>
0

> <Hydrophobic A:ILE189>
0

> <Hydrophobic A:PRO190>
0

> <Hydrophobic A:PHE191>
0

> <Hydrophobic A:TYR240>
0

> <Hydrophobic A:PHE243>
0

> <Hydrophobic A:PHE247>
1

> <Hydrophobic A:PHE248>
0

> <Hydrophobic A:VAL251>
0

> <Hydrophobic A:TRP252>
0

> <Hydrophobic A:SER254>
0

> <Hydrophobic A:LEU261>
0

> <Hydrophobic A:ILE262>
0

> <Hydrophobic A:ILE263>
0

> <Hydrophobic A:TYR272>
1

> <Hydrophobic A:PRO273>
0

> <HydrogenBond A:LYS6>
0

> <HydrogenBond A:ARG55>
2

> <HydrogenBond A:GLY64>
0

> <HydrogenBond A:SER65>
0

> <HydrogenBond A:TRP66>
0

> <HydrogenBond A:SER69>
0

> <HydrogenBond A:PRO73>
0

> <HydrogenBond A:ALA74>
0

> <HydrogenBond A:PHE76>
0

> <HydrogenBond A:ALA77>
0

> <HydrogenBond A:THR78>
0

> <HydrogenBond A:GLU79>
0

> <HydrogenBond A:PHE82>
0

> <HydrogenBond A:ARG83>
0

> <HydrogenBond A:LEU85>
0

> <HydrogenBond A:THR86>
0

> <HydrogenBond A:TRP89>
0

> <HydrogenBond A:THR90>
0

> <HydrogenBond A:ASN93>
0

> <HydrogenBond A:HIS94>
0

> <HydrogenBond A:SER96>
0

> <HydrogenBond A:TRP98>
0

> <HydrogenBond A:ASN144>
0

> <HydrogenBond A:HIS151>
0

> <HydrogenBond A:ILE152>
0

> <HydrogenBond A:ALA154>
0

> <HydrogenBond A:SER155>
0

> <HydrogenBond A:ILE156>
0

> <HydrogenBond A:GLY158>
0

> <HydrogenBond A:TYR159>
0

> <HydrogenBond A:ASN162>
0

> <HydrogenBond A:LYS163>
0

> <HydrogenBond A:SER167>
0

> <HydrogenBond A:ASP168>
0

> <HydrogenBond A:SER169>
0

> <HydrogenBond A:ASN171>
0

> <HydrogenBond A:PHE172>
0

> <HydrogenBond A:THR173>
0

> <HydrogenBond A:ARG174>
0

> <HydrogenBond A:PHE175>
0

> <HydrogenBond A:SER176>
0

> <HydrogenBond A:SER177>
0

> <HydrogenBond A:ILE179>
0

> <HydrogenBond A:VAL180>
0

> <HydrogenBond A:SER183>
0

> <HydrogenBond A:THR184>
0

> <HydrogenBond A:PHE186>
0

> <HydrogenBond A:ILE187>
0

> <HydrogenBond A:PRO190>
0

> <HydrogenBond A:TYR240>
0

> <HydrogenBond A:PHE243>
1

> <HydrogenBond A:SER244>
2

> <HydrogenBond A:PHE247>
0

> <HydrogenBond A:VAL251>
0

> <HydrogenBond A:SER254>
0

> <HydrogenBond A:GLU255>
0

> <HydrogenBond A:ARG256>
0

> <HydrogenBond A:LEU257>
0

> <HydrogenBond A:GLU258>
0

> <HydrogenBond A:GLU259>
0

> <HydrogenBond A:ILE262>
0

> <HydrogenBond A:SER265>
0

> <HydrogenBond A:GLN266>
0

> <HydrogenBond A:MET268>
0

> <HydrogenBond A:GLY269>
0

> <HydrogenBond A:PRO273>
0

> <Other A:SER69>
0

> <Other A:TRP89>
0

> <Other A:TYR159>
0

> <Other A:PHE172>
0

> <Other A:SER176>
0

> <Other A:SER265>
0

$$$$
13783106
  SciTegic09122300493D

 26 26  0  0  0  0            999 V2000
    3.9554    2.0747    0.1687 O   0  0  0  1  0  0
    6.5190   -0.6994    3.5459 O   0  0  0  1  0  0
    5.7860    1.3378    2.9997 N   0  0  0  1  0  0
    5.7639    0.6941    0.2496 N   0  0  0  1  0  0
    5.5295    2.3571    1.9968 C   0  0  1  1  0  0
    6.7596    3.2929    1.8649 C   0  0  0  1  0  0
    6.4321   -0.2158    1.1878 C   0  0  2  1  0  0
    5.0105    1.7178    0.6918 C   0  0  0  1  0  0
    6.2637    0.1223    2.6922 C   0  0  0  1  0  0
    6.8739    4.2131    3.0937 C   0  0  0  1  0  0
    8.0867    2.5619    1.6058 C   0  0  0  1  0  0
    7.8472   -0.6057    0.7757 C   0  0  0  1  0  0
    5.5664    1.4629    3.9674 H   0  0
    5.7023    0.4313   -0.7128 H   0  0
    4.6932    2.9263    2.3886 H   0  0
    6.6114    3.9412    1.0029 H   0  0
    5.8921   -1.1320    1.0558 H   0  0
    6.3914    3.8038    3.9701 H   0  0
    6.3835    5.1655    2.9140 H   0  0
    7.9056    4.4273    3.3705 H   0  0
    8.2723    1.7482    2.2973 H   0  0
    8.9478    3.2074    1.7298 H   0  0
    8.1216    2.1868    0.5837 H   0  0
    8.5787    0.1717    0.9457 H   0  0
    7.8910   -0.8766   -0.2779 H   0  0
    8.1626   -1.4789    1.3495 H   0  0
  1  8  2  0
  2  9  2  0
  3  5  1  0
  3  9  1  0
  4  7  1  0
  4  8  1  0
  5  6  1  0
  5  8  1  0
  6 10  1  0
  6 11  1  0
  7  9  1  0
  7 12  1  0
  3 13  1  0
  4 14  1  0
  5 15  1  0
  6 16  1  0
  7 17  1  0
 10 18  1  0
 10 19  1  0
 10 20  1  0
 11 21  1  0
 11 22  1  0
 11 23  1  0
 12 24  1  0
 12 25  1  0
 12 26  1  0
M  END
> <Name>
13783106

> <Binding Energy>
-39.2862

> <Ligand Energy>
-0.2455

> <Protein Energy>
-7801.1566

> <Complex Energy>
-7840.6884

> <Complex Entropy>
-31.4761

> <Protein Entropy>
-31.4717

> <Ligand Entropy>
-17.6865

> <Entropic Energy>
17.682

> <AbsoluteEnergy>
13.52

> <ConfNumber>
5

> <IonizationIndex>
1

> <MOL_NUMBER>
531

> <NumberOfIonizations>
1

> <NumberOfStereoisomers>
1

> <NumberOfTautomers>
1

> <PUBCHEM_ATOM_DEF_STEREO_COUNT>
2

> <PUBCHEM_ATOM_UDEF_STEREO_COUNT>
0

> <PUBCHEM_BOND_DEF_STEREO_COUNT>
0

> <PUBCHEM_BOND_UDEF_STEREO_COUNT>
0

> <PUBCHEM_CACTVS_TAUTO_COUNT>
4

> <PUBCHEM_COMPONENT_COUNT>
1

> <PUBCHEM_COMPOUND_CID>
13783106

> <PUBCHEM_CONFORMER_DIVERSEORDER>
1
7
5
6
8
3
2
9
4

> <PUBCHEM_CONFORMER_ID>
00D2504200000001

> <PUBCHEM_CONFORMER_RMSD>
0.4

> <PUBCHEM_COORDINATE_TYPE>
2
5
10

> <PUBCHEM_EFFECTIVE_ROTOR_COUNT>
1.8

> <PUBCHEM_FEATURE_SELFOVERLAP>
30.455

> <PUBCHEM_HEAVY_ATOM_COUNT>
12

> <PUBCHEM_ISOTOPIC_ATOM_COUNT>
0

> <PUBCHEM_MMFF94_ENERGY>
36.8508

> <PUBCHEM_MMFF94_PARTIAL_CHARGES>
10
1 -0.57
16 0.37
17 0.37
2 -0.57
3 -0.73
4 -0.73
5 0.36
7 0.36
8 0.57
9 0.57

> <PUBCHEM_PHARMACOPHORE_FEATURES>
6
1 1 acceptor
1 2 acceptor
1 3 donor
1 4 donor
3 6 10 11 hydrophobe
6 3 4 5 7 8 9 rings

> <PUBCHEM_SHAPE_FINGERPRINT>
12423570 1 10083484313829917350
12932764 1 17346595274660876829
13380535 21 18127143986931161289
14325111 11 18410295808799561052
15490181 8 18335709320932837586
15775835 57 18273219694132942296
16945 1 18342452677200984975
193761 8 18122909724576179527
19973954 147 18267586801701081263
20511035 2 17912070656083457391
20645476 183 17678747949493002758
21040471 1 18340769256295362726
21501502 16 18268432330548597603
22802520 49 18056510376520776822
230 275 18341326708632733350
23235685 24 18409728503701582013
23402539 116 18270954769157631124
23463225 33 18334006164662942402
23552423 10 18265055734471316439
241688 4 17687183093331707978
2748010 2 18195529186304420087
369184 2 16877654682190344605
5084963 1 18130795546603781260
53812653 8 18410016575769327156
57177213 63 18409455764704195102
7364860 26 17986108504954786566

> <PUBCHEM_SHAPE_MULTIPOLES>
225.25
4.44
1.89
0.85
0.64
0.27
0.12
-1.01
0.06
0.05
0.05
-0.48
-0.08
-0.46

> <PUBCHEM_SHAPE_SELFOVERLAP>
451.487

> <PUBCHEM_SHAPE_VOLUME>
132

> <RelativeEnergy>
2.55859

> <StereoisomerIndex>
1

> <TautomerIndex>
1

> <POSE_NUMBER>
1

> <LibDockScore>
75.954

> <HotSpots>
6.01,0.67,0.55,A,70,7
7.81,4.27,4.14,A,90,10
9.21,2.67,2.54,A,84,11

> <-In-Situ Starting Energy>
-259.598704

> <-In-Situ Final Energy>
24.0967044

> <In-Situ Gradient>
0.0007702581221

> <Favorable Total>
8

> <Unfavorable Total>
0

> <Charge Total>
0

> <Hydrophobic Total>
5

> <HydrogenBond Total>
3

> <Other Total>
0

> <Favorable A:LYS6>
0

> <Favorable A:ARG55>
2

> <Favorable A:LEU58>
0

> <Favorable A:LEU61>
0

> <Favorable A:ILE62>
0

> <Favorable A:GLY64>
0

> <Favorable A:SER65>
0

> <Favorable A:TRP66>
0

> <Favorable A:SER69>
0

> <Favorable A:VAL70>
0

> <Favorable A:PRO73>
0

> <Favorable A:ALA74>
0

> <Favorable A:PHE76>
0

> <Favorable A:ALA77>
0

> <Favorable A:THR78>
0

> <Favorable A:GLU79>
0

> <Favorable A:PHE82>
0

> <Favorable A:ARG83>
0

> <Favorable A:LEU85>
0

> <Favorable A:THR86>
0

> <Favorable A:TRP89>
0

> <Favorable A:THR90>
0

> <Favorable A:ASN93>
0

> <Favorable A:HIS94>
0

> <Favorable A:SER96>
0

> <Favorable A:VAL97>
1

> <Favorable A:TRP98>
0

> <Favorable A:PHE140>
0

> <Favorable A:LEU141>
0

> <Favorable A:ASN144>
0

> <Favorable A:ILE148>
0

> <Favorable A:ILE150>
0

> <Favorable A:HIS151>
0

> <Favorable A:ILE152>
0

> <Favorable A:ALA154>
0

> <Favorable A:SER155>
0

> <Favorable A:ILE156>
0

> <Favorable A:GLY158>
0

> <Favorable A:TYR159>
0

> <Favorable A:ARG160>
0

> <Favorable A:ARG161>
0

> <Favorable A:ASN162>
0

> <Favorable A:LYS163>
0

> <Favorable A:SER167>
0

> <Favorable A:ASP168>
0

> <Favorable A:SER169>
0

> <Favorable A:ASN171>
0

> <Favorable A:PHE172>
0

> <Favorable A:THR173>
0

> <Favorable A:ARG174>
0

> <Favorable A:PHE175>
0

> <Favorable A:SER176>
0

> <Favorable A:SER177>
0

> <Favorable A:LEU178>
0

> <Favorable A:ILE179>
0

> <Favorable A:VAL180>
0

> <Favorable A:LEU181>
0

> <Favorable A:SER183>
0

> <Favorable A:THR184>
0

> <Favorable A:PHE186>
0

> <Favorable A:ILE187>
2

> <Favorable A:PHE188>
0

> <Favorable A:ILE189>
0

> <Favorable A:PRO190>
0

> <Favorable A:PHE191>
0

> <Favorable A:TYR240>
1

> <Favorable A:PHE243>
0

> <Favorable A:SER244>
1

> <Favorable A:PHE247>
1

> <Favorable A:PHE248>
0

> <Favorable A:VAL251>
0

> <Favorable A:TRP252>
0

> <Favorable A:SER254>
0

> <Favorable A:GLU255>
0

> <Favorable A:ARG256>
0

> <Favorable A:LEU257>
0

> <Favorable A:GLU258>
0

> <Favorable A:GLU259>
0

> <Favorable A:LEU261>
0

> <Favorable A:ILE262>
0

> <Favorable A:ILE263>
0

> <Favorable A:SER265>
0

> <Favorable A:GLN266>
0

> <Favorable A:MET268>
0

> <Favorable A:GLY269>
0

> <Favorable A:TYR272>
0

> <Favorable A:PRO273>
0

> <Unfavorable A:ARG55>
0

> <Unfavorable A:PRO73>
0

> <Unfavorable A:PHE76>
0

> <Unfavorable A:GLU79>
0

> <Unfavorable A:ARG83>
0

> <Unfavorable A:THR86>
0

> <Unfavorable A:TRP89>
0

> <Unfavorable A:THR90>
0

> <Unfavorable A:ASN93>
0

> <Unfavorable A:TRP98>
0

> <Unfavorable A:ASN144>
0

> <Unfavorable A:SER155>
0

> <Unfavorable A:GLY158>
0

> <Unfavorable A:TYR159>
0

> <Unfavorable A:ASN162>
0

> <Unfavorable A:ASP168>
0

> <Unfavorable A:ASN171>
0

> <Unfavorable A:THR173>
0

> <Unfavorable A:ARG174>
0

> <Unfavorable A:SER183>
0

> <Unfavorable A:THR184>
0

> <Unfavorable A:PHE186>
0

> <Unfavorable A:SER244>
0

> <Unfavorable A:SER254>
0

> <Unfavorable A:GLU255>
0

> <Unfavorable A:SER265>
0

> <Unfavorable A:GLN266>
0

> <Unfavorable A:GLY269>
0

> <Charge A:ARG55>
0

> <Charge A:PHE76>
0

> <Charge A:GLU79>
0

> <Charge A:PHE82>
0

> <Charge A:ARG83>
0

> <Charge A:TRP89>
0

> <Charge A:HIS94>
0

> <Charge A:TRP98>
0

> <Charge A:TYR159>
0

> <Charge A:ARG161>
0

> <Charge A:LYS163>
0

> <Charge A:ASP168>
0

> <Charge A:PHE172>
0

> <Charge A:ARG174>
0

> <Charge A:PHE175>
0

> <Charge A:PHE188>
0

> <Charge A:PHE247>
0

> <Charge A:PHE248>
0

> <Hydrophobic A:LEU58>
0

> <Hydrophobic A:LEU61>
0

> <Hydrophobic A:ILE62>
0

> <Hydrophobic A:TRP66>
0

> <Hydrophobic A:VAL70>
0

> <Hydrophobic A:PRO73>
0

> <Hydrophobic A:ALA74>
0

> <Hydrophobic A:PHE76>
0

> <Hydrophobic A:ALA77>
0

> <Hydrophobic A:THR78>
0

> <Hydrophobic A:PHE82>
0

> <Hydrophobic A:ARG83>
0

> <Hydrophobic A:LEU85>
0

> <Hydrophobic A:TRP89>
0

> <Hydrophobic A:THR90>
0

> <Hydrophobic A:ASN93>
0

> <Hydrophobic A:HIS94>
0

> <Hydrophobic A:VAL97>
1

> <Hydrophobic A:TRP98>
0

> <Hydrophobic A:PHE140>
0

> <Hydrophobic A:LEU141>
0

> <Hydrophobic A:ILE148>
0

> <Hydrophobic A:ILE150>
0

> <Hydrophobic A:HIS151>
0

> <Hydrophobic A:ILE152>
0

> <Hydrophobic A:ALA154>
0

> <Hydrophobic A:SER155>
0

> <Hydrophobic A:ILE156>
0

> <Hydrophobic A:GLY158>
0

> <Hydrophobic A:TYR159>
0

> <Hydrophobic A:ARG160>
0

> <Hydrophobic A:ARG161>
0

> <Hydrophobic A:ASP168>
0

> <Hydrophobic A:ASN171>
0

> <Hydrophobic A:PHE172>
0

> <Hydrophobic A:ARG174>
0

> <Hydrophobic A:PHE175>
0

> <Hydrophobic A:LEU178>
0

> <Hydrophobic A:ILE179>
0

> <Hydrophobic A:VAL180>
0

> <Hydrophobic A:LEU181>
0

> <Hydrophobic A:PHE186>
0

> <Hydrophobic A:ILE187>
2

> <Hydrophobic A:PHE188>
0

> <Hydrophobic A:ILE189>
0

> <Hydrophobic A:PRO190>
0

> <Hydrophobic A:PHE191>
0

> <Hydrophobic A:TYR240>
1

> <Hydrophobic A:PHE243>
0

> <Hydrophobic A:PHE247>
1

> <Hydrophobic A:PHE248>
0

> <Hydrophobic A:VAL251>
0

> <Hydrophobic A:TRP252>
0

> <Hydrophobic A:SER254>
0

> <Hydrophobic A:LEU261>
0

> <Hydrophobic A:ILE262>
0

> <Hydrophobic A:ILE263>
0

> <Hydrophobic A:TYR272>
0

> <Hydrophobic A:PRO273>
0

> <HydrogenBond A:LYS6>
0

> <HydrogenBond A:ARG55>
2

> <HydrogenBond A:GLY64>
0

> <HydrogenBond A:SER65>
0

> <HydrogenBond A:TRP66>
0

> <HydrogenBond A:SER69>
0

> <HydrogenBond A:PRO73>
0

> <HydrogenBond A:ALA74>
0

> <HydrogenBond A:PHE76>
0

> <HydrogenBond A:ALA77>
0

> <HydrogenBond A:THR78>
0

> <HydrogenBond A:GLU79>
0

> <HydrogenBond A:PHE82>
0

> <HydrogenBond A:ARG83>
0

> <HydrogenBond A:LEU85>
0

> <HydrogenBond A:THR86>
0

> <HydrogenBond A:TRP89>
0

> <HydrogenBond A:THR90>
0

> <HydrogenBond A:ASN93>
0

> <HydrogenBond A:HIS94>
0

> <HydrogenBond A:SER96>
0

> <HydrogenBond A:TRP98>
0

> <HydrogenBond A:ASN144>
0

> <HydrogenBond A:HIS151>
0

> <HydrogenBond A:ILE152>
0

> <HydrogenBond A:ALA154>
0

> <HydrogenBond A:SER155>
0

> <HydrogenBond A:ILE156>
0

> <HydrogenBond A:GLY158>
0

> <HydrogenBond A:TYR159>
0

> <HydrogenBond A:ASN162>
0

> <HydrogenBond A:LYS163>
0

> <HydrogenBond A:SER167>
0

> <HydrogenBond A:ASP168>
0

> <HydrogenBond A:SER169>
0

> <HydrogenBond A:ASN171>
0

> <HydrogenBond A:PHE172>
0

> <HydrogenBond A:THR173>
0

> <HydrogenBond A:ARG174>
0

> <HydrogenBond A:PHE175>
0

> <HydrogenBond A:SER176>
0

> <HydrogenBond A:SER177>
0

> <HydrogenBond A:ILE179>
0

> <HydrogenBond A:VAL180>
0

> <HydrogenBond A:SER183>
0

> <HydrogenBond A:THR184>
0

> <HydrogenBond A:PHE186>
0

> <HydrogenBond A:ILE187>
0

> <HydrogenBond A:PRO190>
0

> <HydrogenBond A:TYR240>
0

> <HydrogenBond A:PHE243>
0

> <HydrogenBond A:SER244>
1

> <HydrogenBond A:PHE247>
0

> <HydrogenBond A:VAL251>
0

> <HydrogenBond A:SER254>
0

> <HydrogenBond A:GLU255>
0

> <HydrogenBond A:ARG256>
0

> <HydrogenBond A:LEU257>
0

> <HydrogenBond A:GLU258>
0

> <HydrogenBond A:GLU259>
0

> <HydrogenBond A:ILE262>
0

> <HydrogenBond A:SER265>
0

> <HydrogenBond A:GLN266>
0

> <HydrogenBond A:MET268>
0

> <HydrogenBond A:GLY269>
0

> <HydrogenBond A:PRO273>
0

> <Other A:SER69>
0

> <Other A:TRP89>
0

> <Other A:TYR159>
0

> <Other A:PHE172>
0

> <Other A:SER176>
0

> <Other A:SER265>
0

$$$$
13879946
  SciTegic09122300493D

 29 29  0  0  0  0            999 V2000
    8.1797    1.7241   -1.9091 O   0  0  0  1  0  0
    5.9584   -0.5848    2.2436 O   0  0  0  1  0  0
    5.6336    0.9262    0.6002 N   0  0  0  1  0  0
    7.8583   -0.1482   -0.6857 N   0  0  0  1  0  0
    6.3727    1.7682   -0.3367 C   0  0  1  1  0  0
    6.8600    3.0031    0.4454 C   0  0  0  1  0  0
    7.3012    2.7855    1.9167 C   0  0  0  1  0  0
    6.9992   -1.0024    0.1199 C   0  0  2  1  0  0
    7.5584    1.1057   -1.0581 C   0  0  0  1  0  0
    6.1474   -0.2069    1.0987 C   0  0  0  1  0  0
    8.7664    2.3378    1.9963 C   0  0  0  1  0  0
    6.9849    3.9965    2.8190 C   0  0  0  1  0  0
    7.8364   -2.0281    0.8769 C   0  0  0  1  0  0
    4.9521    1.3510    1.1868 H   0  0
    8.6978   -0.5153   -1.0774 H   0  0
    5.6599    2.0654   -1.1071 H   0  0
    6.0012    3.6387    0.4672 H   0  0
    7.6082    3.5703   -0.1118 H   0  0
    6.7083    1.9982    2.3622 H   0  0
    6.3327   -1.5055   -0.5805 H   0  0
    9.1837    2.4326    2.9972 H   0  0
    9.3931    2.9356    1.3424 H   0  0
    8.8713    1.2992    1.6826 H   0  0
    6.2803    3.7400    3.6078 H   0  0
    6.4964    4.8022    2.2761 H   0  0
    7.8719    4.3945    3.3117 H   0  0
    8.3020   -1.5852    1.7551 H   0  0
    8.6241   -2.4321    0.2465 H   0  0
    7.2226   -2.8648    1.2066 H   0  0
  1  9  2  0
  2 10  2  0
  3  5  1  0
  3 10  1  0
  4  8  1  0
  4  9  1  0
  5  6  1  0
  5  9  1  0
  6  7  1  0
  7 11  1  0
  7 12  1  0
  8 10  1  0
  8 13  1  0
  3 14  1  0
  4 15  1  0
  5 16  1  0
  6 17  1  0
  6 18  1  0
  7 19  1  0
  8 20  1  0
 11 21  1  0
 11 22  1  0
 11 23  1  0
 12 24  1  0
 12 25  1  0
 12 26  1  0
 13 27  1  0
 13 28  1  0
 13 29  1  0
M  END
> <Name>
13879946

> <Binding Energy>
-46.0153

> <Ligand Energy>
0.4876

> <Protein Energy>
-7801.1566

> <Complex Energy>
-7846.6844

> <Complex Entropy>
-31.4766

> <Protein Entropy>
-31.4717

> <Ligand Entropy>
-17.9336

> <Entropic Energy>
17.9287

> <AbsoluteEnergy>
13.4738

> <ConfNumber>
8

> <IonizationIndex>
1

> <MOL_NUMBER>
533

> <NumberOfIonizations>
1

> <NumberOfStereoisomers>
1

> <NumberOfTautomers>
1

> <PUBCHEM_ATOM_DEF_STEREO_COUNT>
2

> <PUBCHEM_ATOM_UDEF_STEREO_COUNT>
0

> <PUBCHEM_BOND_DEF_STEREO_COUNT>
0

> <PUBCHEM_BOND_UDEF_STEREO_COUNT>
0

> <PUBCHEM_CACTVS_TAUTO_COUNT>
4

> <PUBCHEM_COMPONENT_COUNT>
1

> <PUBCHEM_COMPOUND_CID>
13879946

> <PUBCHEM_CONFORMER_DIVERSEORDER>
3
2
1
4

> <PUBCHEM_CONFORMER_ID>
00D3CA8A00000003

> <PUBCHEM_CONFORMER_RMSD>
0.6

> <PUBCHEM_COORDINATE_TYPE>
2
5
10

> <PUBCHEM_EFFECTIVE_ROTOR_COUNT>
2.8

> <PUBCHEM_FEATURE_SELFOVERLAP>
30.455

> <PUBCHEM_HEAVY_ATOM_COUNT>
13

> <PUBCHEM_ISOTOPIC_ATOM_COUNT>
0

> <PUBCHEM_MMFF94_ENERGY>
46.0783

> <PUBCHEM_MMFF94_PARTIAL_CHARGES>
10
1 -0.57
10 0.57
19 0.37
2 -0.57
20 0.37
3 -0.73
4 -0.73
5 0.36
8 0.36
9 0.57

> <PUBCHEM_PHARMACOPHORE_FEATURES>
6
1 1 acceptor
1 2 acceptor
1 3 donor
1 4 donor
3 7 11 12 hydrophobe
6 3 4 5 8 9 10 rings

> <PUBCHEM_SHAPE_FINGERPRINT>
108231 29 18338807813524681018
11206711 2 18335426703542357844
12032990 46 18339935869584396158
12897270 3 18334858324660382359
13380535 76 17836922678700289104
14128692 85 18060136565615960997
15757776 16 18412818084152273342
16945 1 18335421261612811777
18619055 16 18115863010425605495
193761 8 17833555587495812514
20201158 50 18334294262358092515
20645477 70 18200589332511135967
21061003 4 18337405931988675873
21501502 16 18050008796725011154
23402539 116 18341332202449793206
23552423 10 18336273391798922093
23559900 14 18410020953453942286
25 1 18116138988313312181
2748010 2 18048038767813499040
3312278 4 18336835190627027720
449060 23 17846227630656839188
5493415 88 18337112374957835571
6338986 31 18195787597227863599
81228 2 18052538768332550969
8809292 202 18042133209488951227

> <PUBCHEM_SHAPE_MULTIPOLES>
245.83
5.07
2.13
0.9
0.38
0.59
0.25
-1.76
1.12
-0.57
-0.51
0.58
-0.12
0.07

> <PUBCHEM_SHAPE_SELFOVERLAP>
488.763

> <PUBCHEM_SHAPE_VOLUME>
145.2

> <RelativeEnergy>
3.21405

> <StereoisomerIndex>
1

> <TautomerIndex>
1

> <POSE_NUMBER>
1

> <LibDockScore>
77.5699

> <HotSpots>
9.21,2.67,2.54,A,84,11
7.81,4.27,4.14,A,90,12
7.61,-2.13,0.94,A,72,13

> <-In-Situ Starting Energy>
-2306.79016

> <-In-Situ Final Energy>
6.94774174

> <In-Situ Gradient>
0.0008737242979

> <Favorable Total>
6

> <Unfavorable Total>
0

> <Charge Total>
0

> <Hydrophobic Total>
5

> <HydrogenBond Total>
1

> <Other Total>
0

> <Favorable A:LYS6>
0

> <Favorable A:ARG55>
0

> <Favorable A:LEU58>
0

> <Favorable A:LEU61>
0

> <Favorable A:ILE62>
0

> <Favorable A:GLY64>
0

> <Favorable A:SER65>
0

> <Favorable A:TRP66>
0

> <Favorable A:SER69>
0

> <Favorable A:VAL70>
0

> <Favorable A:PRO73>
0

> <Favorable A:ALA74>
0

> <Favorable A:PHE76>
0

> <Favorable A:ALA77>
0

> <Favorable A:THR78>
0

> <Favorable A:GLU79>
0

> <Favorable A:PHE82>
0

> <Favorable A:ARG83>
0

> <Favorable A:LEU85>
0

> <Favorable A:THR86>
0

> <Favorable A:TRP89>
0

> <Favorable A:THR90>
0

> <Favorable A:ASN93>
0

> <Favorable A:HIS94>
0

> <Favorable A:SER96>
0

> <Favorable A:VAL97>
1

> <Favorable A:TRP98>
0

> <Favorable A:PHE140>
0

> <Favorable A:LEU141>
0

> <Favorable A:ASN144>
0

> <Favorable A:ILE148>
0

> <Favorable A:ILE150>
0

> <Favorable A:HIS151>
0

> <Favorable A:ILE152>
0

> <Favorable A:ALA154>
0

> <Favorable A:SER155>
0

> <Favorable A:ILE156>
0

> <Favorable A:GLY158>
0

> <Favorable A:TYR159>
0

> <Favorable A:ARG160>
0

> <Favorable A:ARG161>
0

> <Favorable A:ASN162>
0

> <Favorable A:LYS163>
0

> <Favorable A:SER167>
0

> <Favorable A:ASP168>
0

> <Favorable A:SER169>
0

> <Favorable A:ASN171>
0

> <Favorable A:PHE172>
0

> <Favorable A:THR173>
0

> <Favorable A:ARG174>
0

> <Favorable A:PHE175>
0

> <Favorable A:SER176>
0

> <Favorable A:SER177>
0

> <Favorable A:LEU178>
0

> <Favorable A:ILE179>
0

> <Favorable A:VAL180>
0

> <Favorable A:LEU181>
0

> <Favorable A:SER183>
0

> <Favorable A:THR184>
0

> <Favorable A:PHE186>
0

> <Favorable A:ILE187>
2

> <Favorable A:PHE188>
0

> <Favorable A:ILE189>
0

> <Favorable A:PRO190>
0

> <Favorable A:PHE191>
0

> <Favorable A:TYR240>
1

> <Favorable A:PHE243>
0

> <Favorable A:SER244>
0

> <Favorable A:PHE247>
1

> <Favorable A:PHE248>
0

> <Favorable A:VAL251>
0

> <Favorable A:TRP252>
0

> <Favorable A:SER254>
0

> <Favorable A:GLU255>
0

> <Favorable A:ARG256>
0

> <Favorable A:LEU257>
0

> <Favorable A:GLU258>
0

> <Favorable A:GLU259>
0

> <Favorable A:LEU261>
0

> <Favorable A:ILE262>
0

> <Favorable A:ILE263>
0

> <Favorable A:SER265>
0

> <Favorable A:GLN266>
0

> <Favorable A:MET268>
0

> <Favorable A:GLY269>
1

> <Favorable A:TYR272>
0

> <Favorable A:PRO273>
0

> <Unfavorable A:ARG55>
0

> <Unfavorable A:PRO73>
0

> <Unfavorable A:PHE76>
0

> <Unfavorable A:GLU79>
0

> <Unfavorable A:ARG83>
0

> <Unfavorable A:THR86>
0

> <Unfavorable A:TRP89>
0

> <Unfavorable A:THR90>
0

> <Unfavorable A:ASN93>
0

> <Unfavorable A:TRP98>
0

> <Unfavorable A:ASN144>
0

> <Unfavorable A:SER155>
0

> <Unfavorable A:GLY158>
0

> <Unfavorable A:TYR159>
0

> <Unfavorable A:ASN162>
0

> <Unfavorable A:ASP168>
0

> <Unfavorable A:ASN171>
0

> <Unfavorable A:THR173>
0

> <Unfavorable A:ARG174>
0

> <Unfavorable A:SER183>
0

> <Unfavorable A:THR184>
0

> <Unfavorable A:PHE186>
0

> <Unfavorable A:SER244>
0

> <Unfavorable A:SER254>
0

> <Unfavorable A:GLU255>
0

> <Unfavorable A:SER265>
0

> <Unfavorable A:GLN266>
0

> <Unfavorable A:GLY269>
0

> <Charge A:ARG55>
0

> <Charge A:PHE76>
0

> <Charge A:GLU79>
0

> <Charge A:PHE82>
0

> <Charge A:ARG83>
0

> <Charge A:TRP89>
0

> <Charge A:HIS94>
0

> <Charge A:TRP98>
0

> <Charge A:TYR159>
0

> <Charge A:ARG161>
0

> <Charge A:LYS163>
0

> <Charge A:ASP168>
0

> <Charge A:PHE172>
0

> <Charge A:ARG174>
0

> <Charge A:PHE175>
0

> <Charge A:PHE188>
0

> <Charge A:PHE247>
0

> <Charge A:PHE248>
0

> <Hydrophobic A:LEU58>
0

> <Hydrophobic A:LEU61>
0

> <Hydrophobic A:ILE62>
0

> <Hydrophobic A:TRP66>
0

> <Hydrophobic A:VAL70>
0

> <Hydrophobic A:PRO73>
0

> <Hydrophobic A:ALA74>
0

> <Hydrophobic A:PHE76>
0

> <Hydrophobic A:ALA77>
0

> <Hydrophobic A:THR78>
0

> <Hydrophobic A:PHE82>
0

> <Hydrophobic A:ARG83>
0

> <Hydrophobic A:LEU85>
0

> <Hydrophobic A:TRP89>
0

> <Hydrophobic A:THR90>
0

> <Hydrophobic A:ASN93>
0

> <Hydrophobic A:HIS94>
0

> <Hydrophobic A:VAL97>
1

> <Hydrophobic A:TRP98>
0

> <Hydrophobic A:PHE140>
0

> <Hydrophobic A:LEU141>
0

> <Hydrophobic A:ILE148>
0

> <Hydrophobic A:ILE150>
0

> <Hydrophobic A:HIS151>
0

> <Hydrophobic A:ILE152>
0

> <Hydrophobic A:ALA154>
0

> <Hydrophobic A:SER155>
0

> <Hydrophobic A:ILE156>
0

> <Hydrophobic A:GLY158>
0

> <Hydrophobic A:TYR159>
0

> <Hydrophobic A:ARG160>
0

> <Hydrophobic A:ARG161>
0

> <Hydrophobic A:ASP168>
0

> <Hydrophobic A:ASN171>
0

> <Hydrophobic A:PHE172>
0

> <Hydrophobic A:ARG174>
0

> <Hydrophobic A:PHE175>
0

> <Hydrophobic A:LEU178>
0

> <Hydrophobic A:ILE179>
0

> <Hydrophobic A:VAL180>
0

> <Hydrophobic A:LEU181>
0

> <Hydrophobic A:PHE186>
0

> <Hydrophobic A:ILE187>
2

> <Hydrophobic A:PHE188>
0

> <Hydrophobic A:ILE189>
0

> <Hydrophobic A:PRO190>
0

> <Hydrophobic A:PHE191>
0

> <Hydrophobic A:TYR240>
1

> <Hydrophobic A:PHE243>
0

> <Hydrophobic A:PHE247>
1

> <Hydrophobic A:PHE248>
0

> <Hydrophobic A:VAL251>
0

> <Hydrophobic A:TRP252>
0

> <Hydrophobic A:SER254>
0

> <Hydrophobic A:LEU261>
0

> <Hydrophobic A:ILE262>
0

> <Hydrophobic A:ILE263>
0

> <Hydrophobic A:TYR272>
0

> <Hydrophobic A:PRO273>
0

> <HydrogenBond A:LYS6>
0

> <HydrogenBond A:ARG55>
0

> <HydrogenBond A:GLY64>
0

> <HydrogenBond A:SER65>
0

> <HydrogenBond A:TRP66>
0

> <HydrogenBond A:SER69>
0

> <HydrogenBond A:PRO73>
0

> <HydrogenBond A:ALA74>
0

> <HydrogenBond A:PHE76>
0

> <HydrogenBond A:ALA77>
0

> <HydrogenBond A:THR78>
0

> <HydrogenBond A:GLU79>
0

> <HydrogenBond A:PHE82>
0

> <HydrogenBond A:ARG83>
0

> <HydrogenBond A:LEU85>
0

> <HydrogenBond A:THR86>
0

> <HydrogenBond A:TRP89>
0

> <HydrogenBond A:THR90>
0

> <HydrogenBond A:ASN93>
0

> <HydrogenBond A:HIS94>
0

> <HydrogenBond A:SER96>
0

> <HydrogenBond A:TRP98>
0

> <HydrogenBond A:ASN144>
0

> <HydrogenBond A:HIS151>
0

> <HydrogenBond A:ILE152>
0

> <HydrogenBond A:ALA154>
0

> <HydrogenBond A:SER155>
0

> <HydrogenBond A:ILE156>
0

> <HydrogenBond A:GLY158>
0

> <HydrogenBond A:TYR159>
0

> <HydrogenBond A:ASN162>
0

> <HydrogenBond A:LYS163>
0

> <HydrogenBond A:SER167>
0

> <HydrogenBond A:ASP168>
0

> <HydrogenBond A:SER169>
0

> <HydrogenBond A:ASN171>
0

> <HydrogenBond A:PHE172>
0

> <HydrogenBond A:THR173>
0

> <HydrogenBond A:ARG174>
0

> <HydrogenBond A:PHE175>
0

> <HydrogenBond A:SER176>
0

> <HydrogenBond A:SER177>
0

> <HydrogenBond A:ILE179>
0

> <HydrogenBond A:VAL180>
0

> <HydrogenBond A:SER183>
0

> <HydrogenBond A:THR184>
0

> <HydrogenBond A:PHE186>
0

> <HydrogenBond A:ILE187>
0

> <HydrogenBond A:PRO190>
0

> <HydrogenBond A:TYR240>
0

> <HydrogenBond A:PHE243>
0

> <HydrogenBond A:SER244>
0

> <HydrogenBond A:PHE247>
0

> <HydrogenBond A:VAL251>
0

> <HydrogenBond A:SER254>
0

> <HydrogenBond A:GLU255>
0

> <HydrogenBond A:ARG256>
0

> <HydrogenBond A:LEU257>
0

> <HydrogenBond A:GLU258>
0

> <HydrogenBond A:GLU259>
0

> <HydrogenBond A:ILE262>
0

> <HydrogenBond A:SER265>
0

> <HydrogenBond A:GLN266>
0

> <HydrogenBond A:MET268>
0

> <HydrogenBond A:GLY269>
1

> <HydrogenBond A:PRO273>
0

> <Other A:SER69>
0

> <Other A:TRP89>
0

> <Other A:TYR159>
0

> <Other A:PHE172>
0

> <Other A:SER176>
0

> <Other A:SER265>
0

$$$$
13941336
  SciTegic09122300493D

 48 51  0  0  0  0            999 V2000
   16.7794    1.8787   -9.3462 O   0  0  0  1  0  0
   12.0330    2.6268   -9.7327 O   0  0  0  1  0  0
   15.1916    6.1344  -10.9016 O   0  0  0  1  0  0
   12.4898    6.1540  -11.3809 O   0  0  0  1  0  0
   11.8480    4.3084  -15.7255 O   0  0  0  1  0  0
   16.5435    0.4842   -9.3273 C   0  0  0  1  0  0
   15.2939    0.1763   -8.4857 C   0  0  0  1  0  0
   14.0509    0.8565   -9.0570 C   0  0  0  1  0  0
   14.3620    2.2590   -9.4996 C   0  0  0  1  0  0
   15.6801    2.6745   -9.6520 C   0  0  0  1  0  0
   13.3349    3.1383   -9.8163 C   0  0  0  1  0  0
   13.6224    4.4419  -10.2376 C   0  0  0  1  0  0
   17.7775   -0.1384   -8.6644 C   0  0  0  1  0  0
   16.4173    0.0022  -10.7843 C   0  0  0  1  0  0
   10.9942    3.4266  -10.2787 C   0  0  1  1  0  0
   11.2065    4.8860   -9.8247 C   0  0  0  1  0  0
   15.9500    3.9398  -10.1333 C   0  0  0  1  0  0
   14.9390    4.8476  -10.4251 C   0  0  0  1  0  0
   12.4948    5.3302  -10.5120 C   0  0  0  1  0  0
   10.9702    3.3521  -11.7917 C   0  0  0  1  0  0
   10.1959    4.2772  -12.4809 C   0  0  0  1  0  0
   11.8667    2.5592  -12.5102 C   0  0  0  1  0  0
   10.4884    4.5820  -13.7935 C   0  0  0  1  0  0
   12.1343    2.8443  -13.8437 C   0  0  0  1  0  0
   16.5454    6.4597  -11.1492 C   0  0  0  1  0  0
   11.4931    3.9084  -14.4579 C   0  0  0  1  0  0
   11.9083    5.2589  -15.7286 H   0  0
   15.1306   -0.8998   -8.4102 H   0  0
   15.4593    0.5326   -7.4680 H   0  0
   13.2495    0.8629   -8.3174 H   0  0
   13.6831    0.3008   -9.9195 H   0  0
   17.9383    0.2903   -7.6748 H   0  0
   18.6777    0.0488   -9.2494 H   0  0
   17.6687   -1.2151   -8.5428 H   0  0
   17.3399    0.1883  -11.3342 H   0  0
   15.6160    0.5042  -11.3244 H   0  0
   16.2110   -1.0609  -10.8356 H   0  0
   10.0492    3.0401   -9.9117 H   0  0
   11.3217    4.9547   -8.7432 H   0  0
   10.3994    5.5559  -10.1143 H   0  0
   16.9786    4.1834  -10.2828 H   0  0
    9.4467    4.8645  -11.9719 H   0  0
   12.4323    1.7802  -12.0209 H   0  0
    9.9574    5.3810  -14.2708 H   0  0
   12.8816    2.2853  -14.3876 H   0  0
   16.9976    5.7741  -11.8677 H   0  0
   17.1216    6.4668  -10.2248 H   0  0
   16.6007    7.4563  -11.5776 H   0  0
  1  6  1  0
  1 10  1  0
  2 11  1  0
  2 15  1  0
  3 18  1  0
  3 25  1  0
  4 19  2  0
  5 26  1  0
  6  7  1  0
  6 13  1  0
  6 14  1  0
  7  8  1  0
  8  9  1  0
  9 10  2  0
  9 11  1  0
 10 17  1  0
 11 12  2  0
 12 18  1  0
 12 19  1  0
 15 16  1  0
 15 20  1  0
 16 19  1  0
 17 18  2  0
 20 21  2  0
 20 22  1  0
 21 23  1  0
 22 24  2  0
 23 26  2  0
 24 26  1  0
  5 27  1  0
  7 28  1  0
  7 29  1  0
  8 30  1  0
  8 31  1  0
 13 32  1  0
 13 33  1  0
 13 34  1  0
 14 35  1  0
 14 36  1  0
 14 37  1  0
 15 38  1  0
 16 39  1  0
 16 40  1  0
 17 41  1  0
 21 42  1  0
 22 43  1  0
 23 44  1  0
 24 45  1  0
 25 46  1  0
 25 47  1  0
 25 48  1  0
M  END
> <Name>
13941336

> <Binding Energy>
-28.4161

> <Ligand Energy>
13.3137

> <Protein Energy>
-7801.1566

> <Complex Energy>
-7816.2591

> <Complex Entropy>
-31.4845

> <Protein Entropy>
-31.4717

> <Ligand Entropy>
-19.7258

> <Entropic Energy>
19.7129

> <AbsoluteEnergy>
49.9893

> <ConfNumber>
16

> <Ionization pH>
7.5

> <IonizationIndex>
1

> <MOL_NUMBER>
535

> <NumberOfIonizations>
1

> <NumberOfStereoisomers>
1

> <NumberOfTautomers>
1

> <PUBCHEM_ATOM_DEF_STEREO_COUNT>
0

> <PUBCHEM_ATOM_UDEF_STEREO_COUNT>
1

> <PUBCHEM_BOND_DEF_STEREO_COUNT>
0

> <PUBCHEM_BOND_UDEF_STEREO_COUNT>
0

> <PUBCHEM_CACTVS_TAUTO_COUNT>
4

> <PUBCHEM_COMPONENT_COUNT>
1

> <PUBCHEM_COMPOUND_CID>
13941336

> <PUBCHEM_CONFORMER_DIVERSEORDER>
2
3
1
4
5

> <PUBCHEM_CONFORMER_ID>
00D4BA5800000002

> <PUBCHEM_CONFORMER_RMSD>
0.8

> <PUBCHEM_COORDINATE_TYPE>
2
5
10

> <PUBCHEM_EFFECTIVE_ROTOR_COUNT>
3.4

> <PUBCHEM_FEATURE_SELFOVERLAP>
50.817

> <PUBCHEM_HEAVY_ATOM_COUNT>
26

> <PUBCHEM_ISOTOPIC_ATOM_COUNT>
0

> <PUBCHEM_MMFF94_ENERGY>
92.6453

> <PUBCHEM_MMFF94_PARTIAL_CHARGES>
29
1 -0.36
10 0.08
11 0.08
12 0.09
15 0.42
16 0.06
17 -0.15
18 0.08
19 0.42
2 -0.36
20 -0.14
21 -0.15
22 -0.15
23 -0.15
24 -0.15
25 0.28
26 0.08
3 -0.36
4 -0.57
40 0.15
41 0.15
42 0.15
43 0.15
44 0.15
48 0.45
5 -0.53
6 0.28
8 0.14
9 -0.14

> <PUBCHEM_PHARMACOPHORE_FEATURES>
10
1 1 acceptor
1 2 acceptor
1 3 acceptor
1 4 acceptor
1 5 donor
3 6 13 14 hydrophobe
6 1 6 7 8 9 10 rings
6 2 11 12 15 16 19 rings
6 20 21 22 23 24 26 rings
6 9 10 11 12 17 18 rings

> <PUBCHEM_SHAPE_FINGERPRINT>
10411042 1 17834677089335941482
10483366 6 18339658741847838702
10595046 47 18343576353253869189
10675989 125 18413108338169354920
10693767 8 17987802891539845670
1100329 8 18410008828213237154
11796584 16 13973960996108301853
12107183 9 18190724518877693312
12173636 292 17906731754337263126
12236239 1 17702655537792164323
12293681 160 17774167936744511512
12390115 104 18266473181010935265
12422481 6 17677314113574745956
12730499 353 18408611370281965499
12769317 202 18411971473084040881
12788726 201 17417823803047172793
13140716 1 18335982055777909738
13540713 4 18264507207039784954
13590594 115 17908432346263431610
138480 1 18122907525669410250
13878862 14 18191284019640098989
13965767 371 18042106804356952156
14790565 3 18193282012097451932
14848178 96 18411696625315792489
15081414 286 18268711597981079598
15342168 16 18335422391664094445
15420108 30 18197197334865688786
15439362 3 18411700976396874372
15475509 35 16298942035499632083
17818456 19 16985473716139362337
17980427 26 17629730574544949928
1813 80 17699013881243802887
18785283 64 18333732385977761555
19784866 34 18340767156040901064
20157964 124 18410290277683478489
20554085 129 17916568956196172984
20612939 158 18341048523943849765
20739085 24 18259991457023618060
21033648 144 18261660562934397381
21033648 29 17385716955862592957
21033650 10 15123244212591583195
21279426 13 18269849760668366628
21860390 5 18271527503104822150
22122407 14 18197793094396492969
23559900 14 18341891870779648978
23845131 108 18261110807548504811
23929065 36 17193452220707268312
24771293 8 18128800972867387338
24771750 20 18264791981078633878
3178227 256 18261397680813485114
335352 9 18410292511008223046
34797466 226 14764050290899754273
350125 39 18335701594471587300
376196 1 18338509871743655802
397830 11 18188226329928164217
44555599 121 18056479440695198889
474 4 18412540999080395651
5104073 3 18187641444336779803
5385378 56 18410857654909633160
57724786 102 18336551512976166121
6034566 193 17972049290288694165
633830 44 18272375243844417871
6443956 14 18122627150003653078
7808743 9 17972321986584457700
8272917 22 18412825754963740519
9841814 1 18116144468254238986
9981440 41 18195239142841873010

> <PUBCHEM_SHAPE_MULTIPOLES>
505.72
11.5
4.55
1.05
14.64
3.2
-0.3
-11.22
-0.87
-6.35
-0.39
0.42
-0.28
0.3

> <PUBCHEM_SHAPE_SELFOVERLAP>
1113.699

> <PUBCHEM_SHAPE_VOLUME>
272.1

> <RelativeEnergy>
9.6989

> <StereoisomerIndex>
1

> <TautomerIndex>
1

> <POSE_NUMBER>
1

> <LibDockScore>
76.2161

> <HotSpots>
9.21,3.67,-12.86,A,26,21
11.21,4.87,-14.65,A,18,24
16.61,6.47,-11.46,A,30,25

> <-In-Situ Starting Energy>
-2860.75564

> <-In-Situ Final Energy>
21.7740907

> <In-Situ Gradient>
0.0009420119522

> <Favorable Total>
8

> <Unfavorable Total>
0

> <Charge Total>
0

> <Hydrophobic Total>
5

> <HydrogenBond Total>
3

> <Other Total>
0

> <Favorable A:LYS6>
0

> <Favorable A:ARG55>
0

> <Favorable A:LEU58>
0

> <Favorable A:LEU61>
0

> <Favorable A:ILE62>
0

> <Favorable A:GLY64>
0

> <Favorable A:SER65>
0

> <Favorable A:TRP66>
0

> <Favorable A:SER69>
0

> <Favorable A:VAL70>
0

> <Favorable A:PRO73>
0

> <Favorable A:ALA74>
0

> <Favorable A:PHE76>
0

> <Favorable A:ALA77>
0

> <Favorable A:THR78>
0

> <Favorable A:GLU79>
0

> <Favorable A:PHE82>
0

> <Favorable A:ARG83>
0

> <Favorable A:LEU85>
0

> <Favorable A:THR86>
1

> <Favorable A:TRP89>
2

> <Favorable A:THR90>
0

> <Favorable A:ASN93>
0

> <Favorable A:HIS94>
0

> <Favorable A:SER96>
0

> <Favorable A:VAL97>
0

> <Favorable A:TRP98>
0

> <Favorable A:PHE140>
0

> <Favorable A:LEU141>
0

> <Favorable A:ASN144>
0

> <Favorable A:ILE148>
0

> <Favorable A:ILE150>
0

> <Favorable A:HIS151>
0

> <Favorable A:ILE152>
0

> <Favorable A:ALA154>
0

> <Favorable A:SER155>
0

> <Favorable A:ILE156>
0

> <Favorable A:GLY158>
0

> <Favorable A:TYR159>
0

> <Favorable A:ARG160>
0

> <Favorable A:ARG161>
0

> <Favorable A:ASN162>
0

> <Favorable A:LYS163>
0

> <Favorable A:SER167>
0

> <Favorable A:ASP168>
0

> <Favorable A:SER169>
0

> <Favorable A:ASN171>
0

> <Favorable A:PHE172>
0

> <Favorable A:THR173>
0

> <Favorable A:ARG174>
0

> <Favorable A:PHE175>
0

> <Favorable A:SER176>
2

> <Favorable A:SER177>
0

> <Favorable A:LEU178>
0

> <Favorable A:ILE179>
0

> <Favorable A:VAL180>
1

> <Favorable A:LEU181>
0

> <Favorable A:SER183>
0

> <Favorable A:THR184>
0

> <Favorable A:PHE186>
0

> <Favorable A:ILE187>
0

> <Favorable A:PHE188>
0

> <Favorable A:ILE189>
0

> <Favorable A:PRO190>
0

> <Favorable A:PHE191>
0

> <Favorable A:TYR240>
0

> <Favorable A:PHE243>
0

> <Favorable A:SER244>
0

> <Favorable A:PHE247>
0

> <Favorable A:PHE248>
0

> <Favorable A:VAL251>
0

> <Favorable A:TRP252>
0

> <Favorable A:SER254>
0

> <Favorable A:GLU255>
0

> <Favorable A:ARG256>
0

> <Favorable A:LEU257>
0

> <Favorable A:GLU258>
0

> <Favorable A:GLU259>
0

> <Favorable A:LEU261>
0

> <Favorable A:ILE262>
2

> <Favorable A:ILE263>
0

> <Favorable A:SER265>
0

> <Favorable A:GLN266>
0

> <Favorable A:MET268>
0

> <Favorable A:GLY269>
0

> <Favorable A:TYR272>
0

> <Favorable A:PRO273>
0

> <Unfavorable A:ARG55>
0

> <Unfavorable A:PRO73>
0

> <Unfavorable A:PHE76>
0

> <Unfavorable A:GLU79>
0

> <Unfavorable A:ARG83>
0

> <Unfavorable A:THR86>
0

> <Unfavorable A:TRP89>
0

> <Unfavorable A:THR90>
0

> <Unfavorable A:ASN93>
0

> <Unfavorable A:TRP98>
0

> <Unfavorable A:ASN144>
0

> <Unfavorable A:SER155>
0

> <Unfavorable A:GLY158>
0

> <Unfavorable A:TYR159>
0

> <Unfavorable A:ASN162>
0

> <Unfavorable A:ASP168>
0

> <Unfavorable A:ASN171>
0

> <Unfavorable A:THR173>
0

> <Unfavorable A:ARG174>
0

> <Unfavorable A:SER183>
0

> <Unfavorable A:THR184>
0

> <Unfavorable A:PHE186>
0

> <Unfavorable A:SER244>
0

> <Unfavorable A:SER254>
0

> <Unfavorable A:GLU255>
0

> <Unfavorable A:SER265>
0

> <Unfavorable A:GLN266>
0

> <Unfavorable A:GLY269>
0

> <Charge A:ARG55>
0

> <Charge A:PHE76>
0

> <Charge A:GLU79>
0

> <Charge A:PHE82>
0

> <Charge A:ARG83>
0

> <Charge A:TRP89>
0

> <Charge A:HIS94>
0

> <Charge A:TRP98>
0

> <Charge A:TYR159>
0

> <Charge A:ARG161>
0

> <Charge A:LYS163>
0

> <Charge A:ASP168>
0

> <Charge A:PHE172>
0

> <Charge A:ARG174>
0

> <Charge A:PHE175>
0

> <Charge A:PHE188>
0

> <Charge A:PHE247>
0

> <Charge A:PHE248>
0

> <Hydrophobic A:LEU58>
0

> <Hydrophobic A:LEU61>
0

> <Hydrophobic A:ILE62>
0

> <Hydrophobic A:TRP66>
0

> <Hydrophobic A:VAL70>
0

> <Hydrophobic A:PRO73>
0

> <Hydrophobic A:ALA74>
0

> <Hydrophobic A:PHE76>
0

> <Hydrophobic A:ALA77>
0

> <Hydrophobic A:THR78>
0

> <Hydrophobic A:PHE82>
0

> <Hydrophobic A:ARG83>
0

> <Hydrophobic A:LEU85>
0

> <Hydrophobic A:TRP89>
2

> <Hydrophobic A:THR90>
0

> <Hydrophobic A:ASN93>
0

> <Hydrophobic A:HIS94>
0

> <Hydrophobic A:VAL97>
0

> <Hydrophobic A:TRP98>
0

> <Hydrophobic A:PHE140>
0

> <Hydrophobic A:LEU141>
0

> <Hydrophobic A:ILE148>
0

> <Hydrophobic A:ILE150>
0

> <Hydrophobic A:HIS151>
0

> <Hydrophobic A:ILE152>
0

> <Hydrophobic A:ALA154>
0

> <Hydrophobic A:SER155>
0

> <Hydrophobic A:ILE156>
0

> <Hydrophobic A:GLY158>
0

> <Hydrophobic A:TYR159>
0

> <Hydrophobic A:ARG160>
0

> <Hydrophobic A:ARG161>
0

> <Hydrophobic A:ASP168>
0

> <Hydrophobic A:ASN171>
0

> <Hydrophobic A:PHE172>
0

> <Hydrophobic A:ARG174>
0

> <Hydrophobic A:PHE175>
0

> <Hydrophobic A:LEU178>
0

> <Hydrophobic A:ILE179>
0

> <Hydrophobic A:VAL180>
1

> <Hydrophobic A:LEU181>
0

> <Hydrophobic A:PHE186>
0

> <Hydrophobic A:ILE187>
0

> <Hydrophobic A:PHE188>
0

> <Hydrophobic A:ILE189>
0

> <Hydrophobic A:PRO190>
0

> <Hydrophobic A:PHE191>
0

> <Hydrophobic A:TYR240>
0

> <Hydrophobic A:PHE243>
0

> <Hydrophobic A:PHE247>
0

> <Hydrophobic A:PHE248>
0

> <Hydrophobic A:VAL251>
0

> <Hydrophobic A:TRP252>
0

> <Hydrophobic A:SER254>
0

> <Hydrophobic A:LEU261>
0

> <Hydrophobic A:ILE262>
2

> <Hydrophobic A:ILE263>
0

> <Hydrophobic A:TYR272>
0

> <Hydrophobic A:PRO273>
0

> <HydrogenBond A:LYS6>
0

> <HydrogenBond A:ARG55>
0

> <HydrogenBond A:GLY64>
0

> <HydrogenBond A:SER65>
0

> <HydrogenBond A:TRP66>
0

> <HydrogenBond A:SER69>
0

> <HydrogenBond A:PRO73>
0

> <HydrogenBond A:ALA74>
0

> <HydrogenBond A:PHE76>
0

> <HydrogenBond A:ALA77>
0

> <HydrogenBond A:THR78>
0

> <HydrogenBond A:GLU79>
0

> <HydrogenBond A:PHE82>
0

> <HydrogenBond A:ARG83>
0

> <HydrogenBond A:LEU85>
0

> <HydrogenBond A:THR86>
1

> <HydrogenBond A:TRP89>
0

> <HydrogenBond A:THR90>
0

> <HydrogenBond A:ASN93>
0

> <HydrogenBond A:HIS94>
0

> <HydrogenBond A:SER96>
0

> <HydrogenBond A:TRP98>
0

> <HydrogenBond A:ASN144>
0

> <HydrogenBond A:HIS151>
0

> <HydrogenBond A:ILE152>
0

> <HydrogenBond A:ALA154>
0

> <HydrogenBond A:SER155>
0

> <HydrogenBond A:ILE156>
0

> <HydrogenBond A:GLY158>
0

> <HydrogenBond A:TYR159>
0

> <HydrogenBond A:ASN162>
0

> <HydrogenBond A:LYS163>
0

> <HydrogenBond A:SER167>
0

> <HydrogenBond A:ASP168>
0

> <HydrogenBond A:SER169>
0

> <HydrogenBond A:ASN171>
0

> <HydrogenBond A:PHE172>
0

> <HydrogenBond A:THR173>
0

> <HydrogenBond A:ARG174>
0

> <HydrogenBond A:PHE175>
0

> <HydrogenBond A:SER176>
2

> <HydrogenBond A:SER177>
0

> <HydrogenBond A:ILE179>
0

> <HydrogenBond A:VAL180>
0

> <HydrogenBond A:SER183>
0

> <HydrogenBond A:THR184>
0

> <HydrogenBond A:PHE186>
0

> <HydrogenBond A:ILE187>
0

> <HydrogenBond A:PRO190>
0

> <HydrogenBond A:TYR240>
0

> <HydrogenBond A:PHE243>
0

> <HydrogenBond A:SER244>
0

> <HydrogenBond A:PHE247>
0

> <HydrogenBond A:VAL251>
0

> <HydrogenBond A:SER254>
0

> <HydrogenBond A:GLU255>
0

> <HydrogenBond A:ARG256>
0

> <HydrogenBond A:LEU257>
0

> <HydrogenBond A:GLU258>
0

> <HydrogenBond A:GLU259>
0

> <HydrogenBond A:ILE262>
0

> <HydrogenBond A:SER265>
0

> <HydrogenBond A:GLN266>
0

> <HydrogenBond A:MET268>
0

> <HydrogenBond A:GLY269>
0

> <HydrogenBond A:PRO273>
0

> <Other A:SER69>
0

> <Other A:TRP89>
0

> <Other A:TYR159>
0

> <Other A:PHE172>
0

> <Other A:SER176>
0

> <Other A:SER265>
0

$$$$
14162699
  SciTegic09122300493D

 59 62  0  0  0  0            999 V2000
   14.7897    0.7632   -6.9510 O   0  0  0  1  0  0
   14.6852    2.3577   -8.6956 O   0  0  0  1  0  0
   16.1397   -1.7905   -7.5853 O   0  0  0  1  0  0
   16.7266    1.0563   -9.8009 O   0  0  0  1  0  0
   13.9793   -1.2226   -8.8945 O   0  0  0  1  0  0
   18.1272    1.7081   -7.6450 O   0  0  0  1  0  0
   11.8369    4.2222   -9.9902 O   0  0  0  1  0  0
   15.2475    2.2898  -11.5126 O   0  0  0  1  0  0
   19.4950    2.5824   -6.0706 O   0  0  0  1  0  0
   14.3298    2.5356  -13.9182 O   0  0  0  1  0  0
   10.3392    4.9125  -14.3064 O   0  0  0  1  0  0
   12.0569    4.9367   -3.7545 O   0  0  0  1  0  0
   20.4591    4.1235   -8.7131 O   0  5  0  1  0  0
   21.7997    2.8347   -9.8144 O   0  0  0  1  0  0
   16.6781   -0.5116   -7.8685 C   0  0  1  1  0  0
   16.1669   -0.1380   -9.2737 C   0  0  1  1  0  0
   16.1854    0.5101   -6.8147 C   0  0  1  1  0  0
   14.6318   -0.0106   -9.2320 C   0  0  2  1  0  0
   14.2481    1.0857   -8.2293 C   0  0  1  1  0  0
   16.9951    1.8087   -6.7754 C   0  0  0  1  0  0
   13.8543    2.9753   -9.5871 C   0  0  0  1  0  0
   12.7971    3.7006   -9.1758 C   0  0  0  1  0  0
   14.1042    2.8550  -11.0286 C   0  0  0  1  0  0
   13.1775    3.3280  -11.8876 C   0  0  0  1  0  0
   19.3174    2.0749   -7.1708 C   0  0  0  1  0  0
   11.9983    4.0357  -11.3334 C   0  0  0  1  0  0
   12.6438    3.9823   -7.7587 C   0  0  0  1  0  0
   13.2716    3.1971  -13.3631 C   0  0  0  1  0  0
   20.4661    1.7989   -8.1399 C   0  0  0  1  0  0
   11.0423    4.5357  -12.1388 C   0  0  0  1  0  0
   13.4282    4.9546   -7.1582 C   0  0  0  1  0  0
   11.6734    3.3249   -7.0252 C   0  0  0  1  0  0
   12.3282    3.7211  -14.1686 C   0  0  0  1  0  0
   11.1632    4.4223  -13.6018 C   0  0  0  1  0  0
   13.2604    5.2467   -5.8137 C   0  0  0  1  0  0
   11.4679    3.6587   -5.6953 C   0  0  0  1  0  0
   20.9454    3.0150   -8.9449 C   0  0  0  1  0  0
   12.2676    4.6134   -5.0812 C   0  0  0  1  0  0
   16.4922   -2.1318   -6.7711 H   0  0
   17.5403    1.2819   -9.3404 H   0  0
   14.3237   -1.5489   -8.0517 H   0  0
   15.8640    2.1330  -10.7981 H   0  0
   14.9001    2.2069  -13.2326 H   0  0
   12.8828    5.1347   -3.3311 H   0  0
   17.7698   -0.5971   -7.8868 H   0  0
   16.4110   -0.9249   -9.9811 H   0  0
   16.3305    0.0753   -5.8255 H   0  0
   14.2609    0.2487  -10.2223 H   0  0
   13.1622    1.0942   -8.1260 H   0  0
   16.3766    2.6282   -7.1170 H   0  0
   17.2773    2.0462   -5.7468 H   0  0
   20.1657    1.0130   -8.8306 H   0  0
   21.3002    1.4106   -7.5666 H   0  0
   10.1810    5.0276  -11.7281 H   0  0
   14.1654    5.4893   -7.7403 H   0  0
   11.0720    2.5684   -7.5048 H   0  0
   12.4126    3.6383  -15.2347 H   0  0
   13.8979    5.9843   -5.3622 H   0  0
   10.6823    3.1677   -5.1460 H   0  0
  1 17  1  0
  1 19  1  0
  2 19  1  0
  2 21  1  0
  3 15  1  0
  4 16  1  0
  5 18  1  0
  6 20  1  0
  6 25  1  0
  7 22  1  0
  7 26  1  0
  8 23  1  0
  9 25  2  0
 10 28  1  0
 11 34  2  0
 12 38  1  0
 13 37  1  0
 14 37  2  0
 15 16  1  0
 15 17  1  0
 16 18  1  0
 17 20  1  0
 18 19  1  0
 21 22  2  0
 21 23  1  0
 22 27  1  0
 23 24  2  0
 24 26  1  0
 24 28  1  0
 25 29  1  0
 26 30  2  0
 27 31  2  0
 27 32  1  0
 28 33  2  0
 29 37  1  0
 30 34  1  0
 31 35  1  0
 32 36  2  0
 33 34  1  0
 35 38  2  0
 36 38  1  0
  3 39  1  0
  4 40  1  0
  5 41  1  0
  8 42  1  0
 10 43  1  0
 12 44  1  0
 15 45  1  0
 16 46  1  0
 17 47  1  0
 18 48  1  0
 19 49  1  0
 20 50  1  0
 20 51  1  0
 29 52  1  0
 29 53  1  0
 30 54  1  0
 31 55  1  0
 32 56  1  0
 33 57  1  0
 35 58  1  0
 36 59  1  0
M  CHG  1  13  -1
M  END
> <Name>
14162699

> <Binding Energy>
-2.6015

> <Ligand Energy>
35.8416

> <Protein Energy>
-7801.1566

> <Complex Energy>
-7767.9165

> <Complex Entropy>
-31.4909

> <Protein Entropy>
-31.4717

> <Ligand Entropy>
-20.8854

> <Entropic Energy>
20.8661

> <AbsoluteEnergy>
64.6978

> <ConfNumber>
62

> <Ionization pH>
6.85_DPPP

> <IonizationIndex>
1

> <MOL_NUMBER>
540

> <NumberOfIonizations>
2

> <NumberOfStereoisomers>
1

> <NumberOfTautomers>
4

> <PUBCHEM_ATOM_DEF_STEREO_COUNT>
5

> <PUBCHEM_ATOM_UDEF_STEREO_COUNT>
0

> <PUBCHEM_BOND_DEF_STEREO_COUNT>
0

> <PUBCHEM_BOND_UDEF_STEREO_COUNT>
0

> <PUBCHEM_CACTVS_TAUTO_COUNT>
57

> <PUBCHEM_COMPONENT_COUNT>
1

> <PUBCHEM_COMPOUND_CID>
14162699

> <PUBCHEM_CONFORMER_DIVERSEORDER>
1
15
84
77
113
116
5
82
23
16
8
86
2
10
90
35
91
42
59
34
94
88
29
26
52
78
40
105
44
73
119
4
37
36
19
25
99
108
110
106
98
121
3
18
85
30
74
27
111
117
45
17
13
71
112
21
115
65
114
12
53
81
89
87
104
46
6
9
43
47
69
67
68
80
32
64
11
48
101
76
38
41
96
75
103
54
62
95
20
14
102
107
63
83
70
60
56
61
28
22
58
33
57
49
109
31
120
72
51
79
7
24
55
122
118
92
93
39
66
100
50
97

> <PUBCHEM_CONFORMER_ID>
00D81B0B00000001

> <PUBCHEM_CONFORMER_RMSD>
1

> <PUBCHEM_COORDINATE_TYPE>
2
5
10

> <PUBCHEM_EFFECTIVE_ROTOR_COUNT>
9.2

> <PUBCHEM_FEATURE_SELFOVERLAP>
112.083

> <PUBCHEM_HEAVY_ATOM_COUNT>
38

> <PUBCHEM_ISOTOPIC_ATOM_COUNT>
0

> <PUBCHEM_MMFF94_ENERGY>
107.6267

> <PUBCHEM_MMFF94_PARTIAL_CHARGES>
51
1 -0.56
10 -0.53
11 -0.53
12 -0.53
13 -0.65
14 -0.57
15 0.28
16 0.28
17 0.28
18 0.28
19 0.56
2 -0.36
20 0.28
21 0.09
22 0.05
23 0.47
24 0.09
25 0.66
26 0.08
27 0.03
28 0.08
29 0.12
3 -0.68
30 -0.15
31 -0.15
32 -0.15
33 -0.15
34 0.08
35 -0.15
36 -0.15
37 0.66
38 0.08
4 -0.68
46 0.4
47 0.4
48 0.4
5 -0.68
51 0.15
52 0.15
53 0.15
54 0.15
55 0.15
56 0.15
57 0.45
58 0.45
59 0.45
6 -0.43
60 0.5
7 -0.16
8 -0.57
9 -0.57

> <PUBCHEM_PHARMACOPHORE_FEATURES>
22
1 1 acceptor
1 10 donor
1 11 donor
1 12 donor
1 13 acceptor
1 14 acceptor
1 2 acceptor
1 29 anion
1 3 acceptor
1 3 donor
1 4 acceptor
1 4 donor
1 5 acceptor
1 5 donor
1 7 acceptor
1 8 acceptor
1 9 acceptor
3 13 14 37 anion
6 1 15 16 17 18 19 rings
6 24 26 28 30 33 34 rings
6 27 31 32 35 36 38 rings
6 7 21 22 23 24 26 rings

> <PUBCHEM_SHAPE_FINGERPRINT>
10006869 2 18126008402380033743
10074138 170 17977913866642517834
10653451 467 17482278110564376071
10675989 125 17474955801172615185
1100329 8 18410573959534738911
11115154 58 17411569841290704511
11421498 54 17835525203362724003
12156800 1 17914043454890401033
12608794 3 18336255765790865519
12788726 201 17622168283708215809
131258 38 18040727990647604995
13540713 4 17389353199181585279
13947930 73 18041577879203093859
140371 6 18339345423161240694
14117953 113 18124884460883066205
14955137 171 18191596258944985930
15264996 151 18048038756200273971
15351339 4 17765719409328625809
15475509 84 18337675346977476187
16112460 7 18335699472726042507
16728300 4 17607803898820297451
17627616 140 18193277614108521393
21033648 29 17841696435822537336
21344244 78 17908399683175159746
21796203 349 18048633401756994729
4403749 210 18120643640050096704
469060 322 18193816177121247171
6442390 28 17691681196055197162
9961470 85 18270098228204404641

> <PUBCHEM_SHAPE_MULTIPOLES>
699.85
10.72
7.45
1.94
1.4
3.73
-0.08
-2.79
-7.84
1.3
0.52
0.18
-0.34
-4.28

> <PUBCHEM_SHAPE_SELFOVERLAP>
1525.326

> <PUBCHEM_SHAPE_VOLUME>
375

> <RelativeEnergy>
15.855

> <StereoisomerIndex>
1

> <TautomerIndex>
4

> <POSE_NUMBER>
1

> <LibDockScore>
119.4248

> <HotSpots>
14.01,6.27,-5.46,P,57,12
21.81,4.27,-8.86,P,37,14
9.01,2.67,-14.05,A,21,33

> <-In-Situ Starting Energy>
-913.933626

> <-In-Situ Final Energy>
18.9874279

> <In-Situ Gradient>
0.0009128470456

> <Favorable Total>
10

> <Unfavorable Total>
1

> <Charge Total>
0

> <Hydrophobic Total>
3

> <HydrogenBond Total>
7

> <Other Total>
0

> <Favorable A:LYS6>
0

> <Favorable A:ARG55>
0

> <Favorable A:LEU58>
0

> <Favorable A:LEU61>
0

> <Favorable A:ILE62>
0

> <Favorable A:GLY64>
0

> <Favorable A:SER65>
0

> <Favorable A:TRP66>
0

> <Favorable A:SER69>
0

> <Favorable A:VAL70>
0

> <Favorable A:PRO73>
0

> <Favorable A:ALA74>
0

> <Favorable A:PHE76>
0

> <Favorable A:ALA77>
0

> <Favorable A:THR78>
0

> <Favorable A:GLU79>
0

> <Favorable A:PHE82>
0

> <Favorable A:ARG83>
0

> <Favorable A:LEU85>
0

> <Favorable A:THR86>
0

> <Favorable A:TRP89>
2

> <Favorable A:THR90>
0

> <Favorable A:ASN93>
0

> <Favorable A:HIS94>
0

> <Favorable A:SER96>
0

> <Favorable A:VAL97>
0

> <Favorable A:TRP98>
0

> <Favorable A:PHE140>
0

> <Favorable A:LEU141>
0

> <Favorable A:ASN144>
0

> <Favorable A:ILE148>
0

> <Favorable A:ILE150>
0

> <Favorable A:HIS151>
0

> <Favorable A:ILE152>
0

> <Favorable A:ALA154>
0

> <Favorable A:SER155>
0

> <Favorable A:ILE156>
0

> <Favorable A:GLY158>
0

> <Favorable A:TYR159>
0

> <Favorable A:ARG160>
0

> <Favorable A:ARG161>
0

> <Favorable A:ASN162>
0

> <Favorable A:LYS163>
0

> <Favorable A:SER167>
0

> <Favorable A:ASP168>
0

> <Favorable A:SER169>
0

> <Favorable A:ASN171>
0

> <Favorable A:PHE172>
0

> <Favorable A:THR173>
0

> <Favorable A:ARG174>
0

> <Favorable A:PHE175>
0

> <Favorable A:SER176>
3

> <Favorable A:SER177>
0

> <Favorable A:LEU178>
0

> <Favorable A:ILE179>
0

> <Favorable A:VAL180>
1

> <Favorable A:LEU181>
0

> <Favorable A:SER183>
0

> <Favorable A:THR184>
0

> <Favorable A:PHE186>
0

> <Favorable A:ILE187>
0

> <Favorable A:PHE188>
0

> <Favorable A:ILE189>
0

> <Favorable A:PRO190>
0

> <Favorable A:PHE191>
0

> <Favorable A:TYR240>
0

> <Favorable A:PHE243>
0

> <Favorable A:SER244>
0

> <Favorable A:PHE247>
0

> <Favorable A:PHE248>
0

> <Favorable A:VAL251>
0

> <Favorable A:TRP252>
0

> <Favorable A:SER254>
2

> <Favorable A:GLU255>
0

> <Favorable A:ARG256>
0

> <Favorable A:LEU257>
0

> <Favorable A:GLU258>
0

> <Favorable A:GLU259>
0

> <Favorable A:LEU261>
0

> <Favorable A:ILE262>
1

> <Favorable A:ILE263>
0

> <Favorable A:SER265>
1

> <Favorable A:GLN266>
0

> <Favorable A:MET268>
0

> <Favorable A:GLY269>
0

> <Favorable A:TYR272>
0

> <Favorable A:PRO273>
0

> <Unfavorable A:ARG55>
0

> <Unfavorable A:PRO73>
0

> <Unfavorable A:PHE76>
0

> <Unfavorable A:GLU79>
0

> <Unfavorable A:ARG83>
0

> <Unfavorable A:THR86>
0

> <Unfavorable A:TRP89>
0

> <Unfavorable A:THR90>
0

> <Unfavorable A:ASN93>
0

> <Unfavorable A:TRP98>
0

> <Unfavorable A:ASN144>
0

> <Unfavorable A:SER155>
0

> <Unfavorable A:GLY158>
0

> <Unfavorable A:TYR159>
0

> <Unfavorable A:ASN162>
0

> <Unfavorable A:ASP168>
0

> <Unfavorable A:ASN171>
0

> <Unfavorable A:THR173>
0

> <Unfavorable A:ARG174>
0

> <Unfavorable A:SER183>
0

> <Unfavorable A:THR184>
0

> <Unfavorable A:PHE186>
0

> <Unfavorable A:SER244>
0

> <Unfavorable A:SER254>
0

> <Unfavorable A:GLU255>
1

> <Unfavorable A:SER265>
0

> <Unfavorable A:GLN266>
0

> <Unfavorable A:GLY269>
0

> <Charge A:ARG55>
0

> <Charge A:PHE76>
0

> <Charge A:GLU79>
0

> <Charge A:PHE82>
0

> <Charge A:ARG83>
0

> <Charge A:TRP89>
0

> <Charge A:HIS94>
0

> <Charge A:TRP98>
0

> <Charge A:TYR159>
0

> <Charge A:ARG161>
0

> <Charge A:LYS163>
0

> <Charge A:ASP168>
0

> <Charge A:PHE172>
0

> <Charge A:ARG174>
0

> <Charge A:PHE175>
0

> <Charge A:PHE188>
0

> <Charge A:PHE247>
0

> <Charge A:PHE248>
0

> <Hydrophobic A:LEU58>
0

> <Hydrophobic A:LEU61>
0

> <Hydrophobic A:ILE62>
0

> <Hydrophobic A:TRP66>
0

> <Hydrophobic A:VAL70>
0

> <Hydrophobic A:PRO73>
0

> <Hydrophobic A:ALA74>
0

> <Hydrophobic A:PHE76>
0

> <Hydrophobic A:ALA77>
0

> <Hydrophobic A:THR78>
0

> <Hydrophobic A:PHE82>
0

> <Hydrophobic A:ARG83>
0

> <Hydrophobic A:LEU85>
0

> <Hydrophobic A:TRP89>
2

> <Hydrophobic A:THR90>
0

> <Hydrophobic A:ASN93>
0

> <Hydrophobic A:HIS94>
0

> <Hydrophobic A:VAL97>
0

> <Hydrophobic A:TRP98>
0

> <Hydrophobic A:PHE140>
0

> <Hydrophobic A:LEU141>
0

> <Hydrophobic A:ILE148>
0

> <Hydrophobic A:ILE150>
0

> <Hydrophobic A:HIS151>
0

> <Hydrophobic A:ILE152>
0

> <Hydrophobic A:ALA154>
0

> <Hydrophobic A:SER155>
0

> <Hydrophobic A:ILE156>
0

> <Hydrophobic A:GLY158>
0

> <Hydrophobic A:TYR159>
0

> <Hydrophobic A:ARG160>
0

> <Hydrophobic A:ARG161>
0

> <Hydrophobic A:ASP168>
0

> <Hydrophobic A:ASN171>
0

> <Hydrophobic A:PHE172>
0

> <Hydrophobic A:ARG174>
0

> <Hydrophobic A:PHE175>
0

> <Hydrophobic A:LEU178>
0

> <Hydrophobic A:ILE179>
0

> <Hydrophobic A:VAL180>
1

> <Hydrophobic A:LEU181>
0

> <Hydrophobic A:PHE186>
0

> <Hydrophobic A:ILE187>
0

> <Hydrophobic A:PHE188>
0

> <Hydrophobic A:ILE189>
0

> <Hydrophobic A:PRO190>
0

> <Hydrophobic A:PHE191>
0

> <Hydrophobic A:TYR240>
0

> <Hydrophobic A:PHE243>
0

> <Hydrophobic A:PHE247>
0

> <Hydrophobic A:PHE248>
0

> <Hydrophobic A:VAL251>
0

> <Hydrophobic A:TRP252>
0

> <Hydrophobic A:SER254>
0

> <Hydrophobic A:LEU261>
0

> <Hydrophobic A:ILE262>
0

> <Hydrophobic A:ILE263>
0

> <Hydrophobic A:TYR272>
0

> <Hydrophobic A:PRO273>
0

> <HydrogenBond A:LYS6>
0

> <HydrogenBond A:ARG55>
0

> <HydrogenBond A:GLY64>
0

> <HydrogenBond A:SER65>
0

> <HydrogenBond A:TRP66>
0

> <HydrogenBond A:SER69>
0

> <HydrogenBond A:PRO73>
0

> <HydrogenBond A:ALA74>
0

> <HydrogenBond A:PHE76>
0

> <HydrogenBond A:ALA77>
0

> <HydrogenBond A:THR78>
0

> <HydrogenBond A:GLU79>
0

> <HydrogenBond A:PHE82>
0

> <HydrogenBond A:ARG83>
0

> <HydrogenBond A:LEU85>
0

> <HydrogenBond A:THR86>
0

> <HydrogenBond A:TRP89>
0

> <HydrogenBond A:THR90>
0

> <HydrogenBond A:ASN93>
0

> <HydrogenBond A:HIS94>
0

> <HydrogenBond A:SER96>
0

> <HydrogenBond A:TRP98>
0

> <HydrogenBond A:ASN144>
0

> <HydrogenBond A:HIS151>
0

> <HydrogenBond A:ILE152>
0

> <HydrogenBond A:ALA154>
0

> <HydrogenBond A:SER155>
0

> <HydrogenBond A:ILE156>
0

> <HydrogenBond A:GLY158>
0

> <HydrogenBond A:TYR159>
0

> <HydrogenBond A:ASN162>
0

> <HydrogenBond A:LYS163>
0

> <HydrogenBond A:SER167>
0

> <HydrogenBond A:ASP168>
0

> <HydrogenBond A:SER169>
0

> <HydrogenBond A:ASN171>
0

> <HydrogenBond A:PHE172>
0

> <HydrogenBond A:THR173>
0

> <HydrogenBond A:ARG174>
0

> <HydrogenBond A:PHE175>
0

> <HydrogenBond A:SER176>
3

> <HydrogenBond A:SER177>
0

> <HydrogenBond A:ILE179>
0

> <HydrogenBond A:VAL180>
0

> <HydrogenBond A:SER183>
0

> <HydrogenBond A:THR184>
0

> <HydrogenBond A:PHE186>
0

> <HydrogenBond A:ILE187>
0

> <HydrogenBond A:PRO190>
0

> <HydrogenBond A:TYR240>
0

> <HydrogenBond A:PHE243>
0

> <HydrogenBond A:SER244>
0

> <HydrogenBond A:PHE247>
0

> <HydrogenBond A:VAL251>
0

> <HydrogenBond A:SER254>
2

> <HydrogenBond A:GLU255>
0

> <HydrogenBond A:ARG256>
0

> <HydrogenBond A:LEU257>
0

> <HydrogenBond A:GLU258>
0

> <HydrogenBond A:GLU259>
0

> <HydrogenBond A:ILE262>
1

> <HydrogenBond A:SER265>
1

> <HydrogenBond A:GLN266>
0

> <HydrogenBond A:MET268>
0

> <HydrogenBond A:GLY269>
0

> <HydrogenBond A:PRO273>
0

> <Other A:SER69>
0

> <Other A:TRP89>
0

> <Other A:TYR159>
0

> <Other A:PHE172>
0

> <Other A:SER176>
0

> <Other A:SER265>
0

$$$$
15959354
  SciTegic09122300493D

 55 58  0  0  0  0            999 V2000
   14.7540    2.9266  -13.6421 O   0  0  0  1  0  0
   14.1203    2.2362   -9.2696 O   0  0  0  1  0  0
   16.9037    4.2965  -10.4762 O   0  0  0  1  0  0
   15.5507    0.9928  -11.2262 O   0  0  0  1  0  0
   15.4826    6.4832  -10.2969 O   0  0  0  1  0  0
   13.2133   -0.2070  -14.6527 O   0  0  0  1  0  0
   16.9639    1.7330  -14.7574 O   0  0  0  1  0  0
   17.9439   -0.5637  -15.4577 O   0  0  0  1  0  0
   15.4745   -4.4698  -15.1804 O   0  0  0  1  0  0
   10.7207    5.2956  -13.9413 O   0  0  0  1  0  0
    8.7719    3.9999  -12.7506 O   0  0  0  1  0  0
   14.0908    4.4419  -10.2824 C   0  0  2  1  0  0
   14.9267    3.3771   -9.5257 C   0  0  2  1  0  0
   14.3005    4.3721  -11.8093 C   0  0  0  1  0  0
   14.5933    2.9442  -12.2444 C   0  0  2  1  0  0
   16.2363    3.0603  -10.2799 C   0  0  1  1  0  0
   15.8598    2.3348  -11.5894 C   0  0  1  1  0  0
   14.3250    5.8723   -9.7622 C   0  0  0  1  0  0
   14.5597    1.7148  -14.1992 C   0  0  0  1  0  0
   13.3539    1.1085  -14.2875 C   0  0  0  1  0  0
   15.7745    1.0580  -14.6662 C   0  0  0  1  0  0
   15.6872   -0.2519  -14.9433 C   0  0  0  1  0  0
   12.1204    1.8534  -13.9473 C   0  0  0  1  0  0
   14.3725   -0.9199  -14.8559 C   0  0  0  1  0  0
   16.8772   -1.0751  -15.2834 C   0  0  0  1  0  0
   14.3130   -2.2612  -14.9678 C   0  0  0  1  0  0
   11.9943    3.2216  -14.2218 C   0  0  0  1  0  0
   11.0783    1.1931  -13.2994 C   0  0  0  1  0  0
   16.7213   -2.5405  -15.3347 C   0  0  0  1  0  0
   15.5125   -3.1069  -15.1616 C   0  0  0  1  0  0
   10.8742    3.9244  -13.7901 C   0  0  0  1  0  0
    9.9451    1.8918  -12.8964 C   0  0  0  1  0  0
    9.8575    3.2537  -13.1391 C   0  0  0  1  0  0
   14.5004    1.4620   -9.6894 H   0  0
   17.6710    4.1844  -11.0468 H   0  0
   15.4148    0.4681  -12.0134 H   0  0
   16.2199    5.8767  -10.2332 H   0  0
   17.6502    1.1568  -15.0907 H   0  0
   14.5919   -4.7556  -15.3908 H   0  0
   11.1944    5.6326  -14.6981 H   0  0
    8.9945    4.8951  -12.9991 H   0  0
   13.0451    4.2076  -10.0778 H   0  0
   15.1731    3.7628   -8.5445 H   0  0
   15.1189    4.9964  -12.1608 H   0  0
   13.4146    4.7536  -12.3144 H   0  0
   13.7133    2.3729  -11.9482 H   0  0
   16.8751    2.4210   -9.6607 H   0  0
   16.7119    2.3512  -12.2784 H   0  0
   13.4830    6.5000  -10.0574 H   0  0
   14.3600    5.9093   -8.6695 H   0  0
   13.3531   -2.7384  -14.9036 H   0  0
   12.7856    3.7355  -14.7450 H   0  0
   11.1526    0.1377  -13.0797 H   0  0
   17.5922   -3.1459  -15.5021 H   0  0
    9.1424    1.3873  -12.3781 H   0  0
  1 15  1  0
  1 19  1  0
  2 13  1  0
  3 16  1  0
  4 17  1  0
  5 18  1  0
  6 20  1  0
  6 24  1  0
  7 21  1  0
  8 25  2  0
  9 30  1  0
 10 31  1  0
 11 33  1  0
 12 13  1  0
 12 14  1  0
 12 18  1  0
 13 16  1  0
 14 15  1  0
 15 17  1  0
 16 17  1  0
 19 20  2  0
 19 21  1  0
 20 23  1  0
 21 22  2  0
 22 24  1  0
 22 25  1  0
 23 27  2  0
 23 28  1  0
 24 26  2  0
 25 29  1  0
 26 30  1  0
 27 31  1  0
 28 32  2  0
 29 30  2  0
 31 33  2  0
 32 33  1  0
  2 34  1  0
  3 35  1  0
  4 36  1  0
  5 37  1  0
  7 38  1  0
  9 39  1  0
 10 40  1  0
 11 41  1  0
 12 42  1  0
 13 43  1  0
 14 44  1  0
 14 45  1  0
 15 46  1  0
 16 47  1  0
 17 48  1  0
 18 49  1  0
 18 50  1  0
 26 51  1  0
 27 52  1  0
 28 53  1  0
 29 54  1  0
 32 55  1  0
M  END
> <Name>
15959354

> <Binding Energy>
-31.2108

> <Ligand Energy>
53.0919

> <Protein Energy>
-7801.1566

> <Complex Energy>
-7779.2756

> <Complex Entropy>
-31.4895

> <Protein Entropy>
-31.4717

> <Ligand Entropy>
-20.4512

> <Entropic Energy>
20.4334

> <AbsoluteEnergy>
65.6476

> <ConfNumber>
38

> <Ionization pH>
7.5

> <IonizationIndex>
1

> <MOL_NUMBER>
545

> <NumberOfIonizations>
1

> <NumberOfStereoisomers>
1

> <NumberOfTautomers>
4

> <PUBCHEM_ATOM_DEF_STEREO_COUNT>
5

> <PUBCHEM_ATOM_UDEF_STEREO_COUNT>
0

> <PUBCHEM_BOND_DEF_STEREO_COUNT>
0

> <PUBCHEM_BOND_UDEF_STEREO_COUNT>
0

> <PUBCHEM_CACTVS_TAUTO_COUNT>
162

> <PUBCHEM_COMPONENT_COUNT>
1

> <PUBCHEM_COMPOUND_CID>
15959354

> <PUBCHEM_CONFORMER_DIVERSEORDER>
1
40
8
50
31
3
16
30
44
47
13
43
49
34
26
39
32
7
37
41
22
25
19
23
35
15
29
24
4
2
45
14
42
20
33
28
36
48
5
38
46
21
12
27
6
18
11
9
17
10

> <PUBCHEM_CONFORMER_ID>
00F3853A00000001

> <PUBCHEM_CONFORMER_RMSD>
0.8

> <PUBCHEM_COORDINATE_TYPE>
2
5
10

> <PUBCHEM_EFFECTIVE_ROTOR_COUNT>
5.2

> <PUBCHEM_FEATURE_SELFOVERLAP>
96.483

> <PUBCHEM_HEAVY_ATOM_COUNT>
33

> <PUBCHEM_ISOTOPIC_ATOM_COUNT>
0

> <PUBCHEM_MMFF94_ENERGY>
104.2562

> <PUBCHEM_MMFF94_PARTIAL_CHARGES>
44
1 -0.36
10 -0.53
11 -0.53
13 0.28
15 0.28
16 0.28
17 0.28
18 0.28
19 0.09
2 -0.68
20 0.05
21 0.47
22 0.09
23 0.03
24 0.08
25 0.08
26 -0.15
27 -0.15
28 -0.15
29 -0.15
3 -0.68
30 0.08
31 0.08
32 -0.15
33 0.08
4 -0.68
43 0.4
44 0.4
45 0.4
46 0.4
47 0.15
48 0.15
49 0.15
5 -0.68
50 0.15
51 0.15
52 0.45
53 0.45
54 0.45
55 0.45
6 -0.16
7 -0.57
8 -0.53
9 -0.53

> <PUBCHEM_PHARMACOPHORE_FEATURES>
19
1 1 acceptor
1 10 donor
1 11 donor
1 2 acceptor
1 2 donor
1 3 acceptor
1 3 donor
1 4 acceptor
1 4 donor
1 5 acceptor
1 5 donor
1 6 acceptor
1 7 acceptor
1 8 donor
1 9 donor
6 12 13 14 15 16 17 rings
6 22 24 25 26 29 30 rings
6 23 27 28 31 32 33 rings
6 6 19 20 21 22 24 rings

> <PUBCHEM_SHAPE_FINGERPRINT>
10554248 39 9510357101400963915
11991303 11 8026254021840204833
12156800 1 15335789658553331432
12160290 23 17615947938249459364
12342043 65 17341827625135762094
12422481 6 18123157295239948624
12788726 201 17899712171299840906
13140716 1 18051138291245576869
133893 2 18046326789876086837
13540713 5 18129107895825824951
13642711 20 8408771909931471969
14363568 33 18340755023417939592
14790565 3 17763469812791101661
14955137 171 18342746260123357468
15420108 30 17983290718545302301
15475509 35 17168153368801442739
15664445 248 18340504347440121028
15684970 41 18187088390152182058
15775530 1 18188755245806715469
17980427 23 17917422138606591703
1813 80 18335423435119587995
19309040 13 14906466823910627978
20600515 1 18054803788345788645
20642791 268 18271237339102997545
20739085 24 18343584044807105714
21033648 29 17773585032530950539
21133665 82 17833004011355420108
21421861 104 18336270153810416641
21796203 349 17760418444791050515
22956985 138 18189610725692184850
23366157 5 18189906490177771525
23559900 14 18059309728951686695
3380486 145 17984668213484035916
3411729 13 18192999442167324833
376196 1 17268090337901908765
394222 165 18049165771759168977
4409770 3 17682953298138775397
57527358 35 14276847677670217125
6287921 2 18129087000044876578
6679774 75 17827351387647797312
79837 15 17185039903717647519
9841814 1 18187085078763453387
9981440 41 17689163730754191755

> <PUBCHEM_SHAPE_MULTIPOLES>
614.56
9.44
6.56
1.98
11.65
8.81
-0.84
-9.04
-5.08
-7.61
2.41
-2.17
-0.31
0.18

> <PUBCHEM_SHAPE_SELFOVERLAP>
1351.245

> <PUBCHEM_SHAPE_VOLUME>
328.5

> <RelativeEnergy>
17.905

> <StereoisomerIndex>
1

> <TautomerIndex>
2

> <POSE_NUMBER>
1

> <LibDockScore>
72.8187

> <HotSpots>
11.21,-4.73,-14.26,P,22,9
11.01,5.47,-15.65,P,18,10
9.21,3.67,-12.86,A,26,32

> <-In-Situ Starting Energy>
-881.90453

> <-In-Situ Final Energy>
11.2048599

> <In-Situ Gradient>
0.0009240514268

> <Favorable Total>
7

> <Unfavorable Total>
0

> <Charge Total>
0

> <Hydrophobic Total>
4

> <HydrogenBond Total>
3

> <Other Total>
0

> <Favorable A:LYS6>
0

> <Favorable A:ARG55>
0

> <Favorable A:LEU58>
0

> <Favorable A:LEU61>
0

> <Favorable A:ILE62>
0

> <Favorable A:GLY64>
0

> <Favorable A:SER65>
0

> <Favorable A:TRP66>
0

> <Favorable A:SER69>
1

> <Favorable A:VAL70>
0

> <Favorable A:PRO73>
0

> <Favorable A:ALA74>
0

> <Favorable A:PHE76>
1

> <Favorable A:ALA77>
0

> <Favorable A:THR78>
0

> <Favorable A:GLU79>
0

> <Favorable A:PHE82>
2

> <Favorable A:ARG83>
0

> <Favorable A:LEU85>
1

> <Favorable A:THR86>
1

> <Favorable A:TRP89>
0

> <Favorable A:THR90>
0

> <Favorable A:ASN93>
0

> <Favorable A:HIS94>
0

> <Favorable A:SER96>
0

> <Favorable A:VAL97>
0

> <Favorable A:TRP98>
0

> <Favorable A:PHE140>
0

> <Favorable A:LEU141>
0

> <Favorable A:ASN144>
0

> <Favorable A:ILE148>
0

> <Favorable A:ILE150>
0

> <Favorable A:HIS151>
0

> <Favorable A:ILE152>
0

> <Favorable A:ALA154>
0

> <Favorable A:SER155>
0

> <Favorable A:ILE156>
0

> <Favorable A:GLY158>
0

> <Favorable A:TYR159>
0

> <Favorable A:ARG160>
0

> <Favorable A:ARG161>
0

> <Favorable A:ASN162>
0

> <Favorable A:LYS163>
0

> <Favorable A:SER167>
0

> <Favorable A:ASP168>
0

> <Favorable A:SER169>
0

> <Favorable A:ASN171>
0

> <Favorable A:PHE172>
0

> <Favorable A:THR173>
0

> <Favorable A:ARG174>
0

> <Favorable A:PHE175>
0

> <Favorable A:SER176>
0

> <Favorable A:SER177>
0

> <Favorable A:LEU178>
0

> <Favorable A:ILE179>
0

> <Favorable A:VAL180>
0

> <Favorable A:LEU181>
0

> <Favorable A:SER183>
0

> <Favorable A:THR184>
0

> <Favorable A:PHE186>
0

> <Favorable A:ILE187>
0

> <Favorable A:PHE188>
0

> <Favorable A:ILE189>
0

> <Favorable A:PRO190>
0

> <Favorable A:PHE191>
0

> <Favorable A:TYR240>
0

> <Favorable A:PHE243>
0

> <Favorable A:SER244>
0

> <Favorable A:PHE247>
0

> <Favorable A:PHE248>
0

> <Favorable A:VAL251>
0

> <Favorable A:TRP252>
0

> <Favorable A:SER254>
0

> <Favorable A:GLU255>
0

> <Favorable A:ARG256>
0

> <Favorable A:LEU257>
0

> <Favorable A:GLU258>
0

> <Favorable A:GLU259>
0

> <Favorable A:LEU261>
0

> <Favorable A:ILE262>
1

> <Favorable A:ILE263>
0

> <Favorable A:SER265>
0

> <Favorable A:GLN266>
0

> <Favorable A:MET268>
0

> <Favorable A:GLY269>
0

> <Favorable A:TYR272>
0

> <Favorable A:PRO273>
0

> <Unfavorable A:ARG55>
0

> <Unfavorable A:PRO73>
0

> <Unfavorable A:PHE76>
0

> <Unfavorable A:GLU79>
0

> <Unfavorable A:ARG83>
0

> <Unfavorable A:THR86>
0

> <Unfavorable A:TRP89>
0

> <Unfavorable A:THR90>
0

> <Unfavorable A:ASN93>
0

> <Unfavorable A:TRP98>
0

> <Unfavorable A:ASN144>
0

> <Unfavorable A:SER155>
0

> <Unfavorable A:GLY158>
0

> <Unfavorable A:TYR159>
0

> <Unfavorable A:ASN162>
0

> <Unfavorable A:ASP168>
0

> <Unfavorable A:ASN171>
0

> <Unfavorable A:THR173>
0

> <Unfavorable A:ARG174>
0

> <Unfavorable A:SER183>
0

> <Unfavorable A:THR184>
0

> <Unfavorable A:PHE186>
0

> <Unfavorable A:SER244>
0

> <Unfavorable A:SER254>
0

> <Unfavorable A:GLU255>
0

> <Unfavorable A:SER265>
0

> <Unfavorable A:GLN266>
0

> <Unfavorable A:GLY269>
0

> <Charge A:ARG55>
0

> <Charge A:PHE76>
0

> <Charge A:GLU79>
0

> <Charge A:PHE82>
0

> <Charge A:ARG83>
0

> <Charge A:TRP89>
0

> <Charge A:HIS94>
0

> <Charge A:TRP98>
0

> <Charge A:TYR159>
0

> <Charge A:ARG161>
0

> <Charge A:LYS163>
0

> <Charge A:ASP168>
0

> <Charge A:PHE172>
0

> <Charge A:ARG174>
0

> <Charge A:PHE175>
0

> <Charge A:PHE188>
0

> <Charge A:PHE247>
0

> <Charge A:PHE248>
0

> <Hydrophobic A:LEU58>
0

> <Hydrophobic A:LEU61>
0

> <Hydrophobic A:ILE62>
0

> <Hydrophobic A:TRP66>
0

> <Hydrophobic A:VAL70>
0

> <Hydrophobic A:PRO73>
0

> <Hydrophobic A:ALA74>
0

> <Hydrophobic A:PHE76>
1

> <Hydrophobic A:ALA77>
0

> <Hydrophobic A:THR78>
0

> <Hydrophobic A:PHE82>
1

> <Hydrophobic A:ARG83>
0

> <Hydrophobic A:LEU85>
1

> <Hydrophobic A:TRP89>
0

> <Hydrophobic A:THR90>
0

> <Hydrophobic A:ASN93>
0

> <Hydrophobic A:HIS94>
0

> <Hydrophobic A:VAL97>
0

> <Hydrophobic A:TRP98>
0

> <Hydrophobic A:PHE140>
0

> <Hydrophobic A:LEU141>
0

> <Hydrophobic A:ILE148>
0

> <Hydrophobic A:ILE150>
0

> <Hydrophobic A:HIS151>
0

> <Hydrophobic A:ILE152>
0

> <Hydrophobic A:ALA154>
0

> <Hydrophobic A:SER155>
0

> <Hydrophobic A:ILE156>
0

> <Hydrophobic A:GLY158>
0

> <Hydrophobic A:TYR159>
0

> <Hydrophobic A:ARG160>
0

> <Hydrophobic A:ARG161>
0

> <Hydrophobic A:ASP168>
0

> <Hydrophobic A:ASN171>
0

> <Hydrophobic A:PHE172>
0

> <Hydrophobic A:ARG174>
0

> <Hydrophobic A:PHE175>
0

> <Hydrophobic A:LEU178>
0

> <Hydrophobic A:ILE179>
0

> <Hydrophobic A:VAL180>
0

> <Hydrophobic A:LEU181>
0

> <Hydrophobic A:PHE186>
0

> <Hydrophobic A:ILE187>
0

> <Hydrophobic A:PHE188>
0

> <Hydrophobic A:ILE189>
0

> <Hydrophobic A:PRO190>
0

> <Hydrophobic A:PHE191>
0

> <Hydrophobic A:TYR240>
0

> <Hydrophobic A:PHE243>
0

> <Hydrophobic A:PHE247>
0

> <Hydrophobic A:PHE248>
0

> <Hydrophobic A:VAL251>
0

> <Hydrophobic A:TRP252>
0

> <Hydrophobic A:SER254>
0

> <Hydrophobic A:LEU261>
0

> <Hydrophobic A:ILE262>
1

> <Hydrophobic A:ILE263>
0

> <Hydrophobic A:TYR272>
0

> <Hydrophobic A:PRO273>
0

> <HydrogenBond A:LYS6>
0

> <HydrogenBond A:ARG55>
0

> <HydrogenBond A:GLY64>
0

> <HydrogenBond A:SER65>
0

> <HydrogenBond A:TRP66>
0

> <HydrogenBond A:SER69>
1

> <HydrogenBond A:PRO73>
0

> <HydrogenBond A:ALA74>
0

> <HydrogenBond A:PHE76>
0

> <HydrogenBond A:ALA77>
0

> <HydrogenBond A:THR78>
0

> <HydrogenBond A:GLU79>
0

> <HydrogenBond A:PHE82>
1

> <HydrogenBond A:ARG83>
0

> <HydrogenBond A:LEU85>
0

> <HydrogenBond A:THR86>
1

> <HydrogenBond A:TRP89>
0

> <HydrogenBond A:THR90>
0

> <HydrogenBond A:ASN93>
0

> <HydrogenBond A:HIS94>
0

> <HydrogenBond A:SER96>
0

> <HydrogenBond A:TRP98>
0

> <HydrogenBond A:ASN144>
0

> <HydrogenBond A:HIS151>
0

> <HydrogenBond A:ILE152>
0

> <HydrogenBond A:ALA154>
0

> <HydrogenBond A:SER155>
0

> <HydrogenBond A:ILE156>
0

> <HydrogenBond A:GLY158>
0

> <HydrogenBond A:TYR159>
0

> <HydrogenBond A:ASN162>
0

> <HydrogenBond A:LYS163>
0

> <HydrogenBond A:SER167>
0

> <HydrogenBond A:ASP168>
0

> <HydrogenBond A:SER169>
0

> <HydrogenBond A:ASN171>
0

> <HydrogenBond A:PHE172>
0

> <HydrogenBond A:THR173>
0

> <HydrogenBond A:ARG174>
0

> <HydrogenBond A:PHE175>
0

> <HydrogenBond A:SER176>
0

> <HydrogenBond A:SER177>
0

> <HydrogenBond A:ILE179>
0

> <HydrogenBond A:VAL180>
0

> <HydrogenBond A:SER183>
0

> <HydrogenBond A:THR184>
0

> <HydrogenBond A:PHE186>
0

> <HydrogenBond A:ILE187>
0

> <HydrogenBond A:PRO190>
0

> <HydrogenBond A:TYR240>
0

> <HydrogenBond A:PHE243>
0

> <HydrogenBond A:SER244>
0

> <HydrogenBond A:PHE247>
0

> <HydrogenBond A:VAL251>
0

> <HydrogenBond A:SER254>
0

> <HydrogenBond A:GLU255>
0

> <HydrogenBond A:ARG256>
0

> <HydrogenBond A:LEU257>
0

> <HydrogenBond A:GLU258>
0

> <HydrogenBond A:GLU259>
0

> <HydrogenBond A:ILE262>
0

> <HydrogenBond A:SER265>
0

> <HydrogenBond A:GLN266>
0

> <HydrogenBond A:MET268>
0

> <HydrogenBond A:GLY269>
0

> <HydrogenBond A:PRO273>
0

> <Other A:SER69>
0

> <Other A:TRP89>
0

> <Other A:TYR159>
0

> <Other A:PHE172>
0

> <Other A:SER176>
0

> <Other A:SER265>
0

$$$$
21594782
  SciTegic09122300493D

 56 56  0  0  0  0            999 V2000
   10.0680    5.2960  -10.8064 O   0  0  0  1  0  0
   11.2907    3.7899   -8.7575 O   0  0  0  1  0  0
    9.9193    1.0646  -12.2043 O   0  0  0  1  0  0
   12.4898    5.6243  -12.3806 O   0  0  0  1  0  0
   10.1413   -0.2419   -9.9238 O   0  0  0  1  0  0
   10.6166    3.4001  -12.2774 C   0  0  1  1  0  0
   11.0230    4.3033  -11.0771 C   0  0  2  1  0  0
   11.0862    3.3762   -9.8587 C   0  0  0  1  0  0
   10.3420    2.0292  -11.6392 C   0  0  0  1  0  0
    9.3840    3.9080  -13.0218 C   0  0  0  1  0  0
   10.7228    2.0190  -10.2431 C   0  0  0  1  0  0
   12.3394    5.0188  -11.3621 C   0  0  0  1  0  0
   10.7191    0.9208   -9.4652 C   0  0  0  1  0  0
   13.4010    5.0120  -10.2661 C   0  0  0  1  0  0
   11.4962    0.8927   -8.1665 C   0  0  0  1  0  0
    9.0466    3.0102  -14.1789 C   0  0  0  1  0  0
   12.2486   -0.4130   -7.9177 C   0  0  0  1  0  0
    7.9783    2.2079  -14.2979 C   0  0  0  1  0  0
   14.5681    5.8200  -10.7141 C   0  0  0  1  0  0
   11.2686   -1.4349   -7.3365 C   0  0  0  1  0  0
   12.9917   -0.9268   -9.1634 C   0  0  0  1  0  0
    6.9124    2.1999  -13.2498 C   0  0  0  1  0  0
    7.5790    1.3965  -15.5163 C   0  0  0  1  0  0
   15.8326    5.3962  -10.8202 C   0  0  0  1  0  0
   16.2892    3.9590  -10.7837 C   0  0  0  1  0  0
   16.8804    6.3702  -11.2547 C   0  0  0  1  0  0
   10.2421    5.5665   -9.9093 H   0  0
    9.7536   -0.1072  -10.7897 H   0  0
   11.4410    3.2655  -12.9800 H   0  0
    9.5748    4.9149  -13.3927 H   0  0
    8.5600    3.9943  -12.3238 H   0  0
   12.9864    5.4645   -9.3655 H   0  0
   13.6882    3.9915  -10.0207 H   0  0
   12.2335    1.6943   -8.1537 H   0  0
   10.8416    1.0851   -7.3230 H   0  0
    9.7295    3.1161  -14.9846 H   0  0
   13.0028   -0.2291   -7.1511 H   0  0
   14.3195    6.8309  -10.9599 H   0  0
   10.3326   -1.4761   -7.8885 H   0  0
   11.0244   -1.2033   -6.2997 H   0  0
   11.7025   -2.4214   -7.3603 H   0  0
   13.6147   -0.1450   -9.5977 H   0  0
   12.3114   -1.2849   -9.9341 H   0  0
   13.6455   -1.7575   -8.9085 H   0  0
    6.7617    3.1784  -12.8001 H   0  0
    7.1511    1.4803  -12.4667 H   0  0
    5.9802    1.8964  -13.7084 H   0  0
    8.2800    0.6202  -15.6537 H   0  0
    7.6827    1.8050  -16.4786 H   0  0
    6.5533    1.0266  -15.4940 H   0  0
   17.0070    3.7584  -11.5798 H   0  0
   15.4611    3.2665  -10.9219 H   0  0
   16.7631    3.7347   -9.8289 H   0  0
   16.4434    7.3003  -11.6154 H   0  0
   17.5087    5.9598  -12.0450 H   0  0
   17.4772    6.6098  -10.3818 H   0  0
  1  7  1  0
  2  8  2  0
  3  9  2  0
  4 12  2  0
  5 13  1  0
  6  7  1  0
  6  9  1  0
  6 10  1  0
  7  8  1  0
  7 12  1  0
  8 11  1  0
  9 11  1  0
 10 16  1  0
 11 13  2  0
 12 14  1  0
 13 15  1  0
 14 19  1  0
 15 17  1  0
 16 18  2  0
 17 20  1  0
 17 21  1  0
 18 22  1  0
 18 23  1  0
 19 24  2  0
 24 25  1  0
 24 26  1  0
  1 27  1  0
  5 28  1  0
  6 29  1  0
 10 30  1  0
 10 31  1  0
 14 32  1  0
 14 33  1  0
 15 34  1  0
 15 35  1  0
 16 36  1  0
 17 37  1  0
 19 38  1  0
 20 39  1  0
 20 40  1  0
 20 41  1  0
 21 42  1  0
 21 43  1  0
 21 44  1  0
 22 45  1  0
 22 46  1  0
 22 47  1  0
 23 48  1  0
 23 49  1  0
 23 50  1  0
 25 51  1  0
 25 52  1  0
 25 53  1  0
 26 54  1  0
 26 55  1  0
 26 56  1  0
M  END
> <Name>
21594782

> <Binding Energy>
-32.4528

> <Ligand Energy>
107.8078

> <Protein Energy>
-7801.1566

> <Complex Energy>
-7725.8017

> <Complex Entropy>
-31.4842

> <Protein Entropy>
-31.4717

> <Ligand Entropy>
-19.9765

> <Entropic Energy>
19.964

> <AbsoluteEnergy>
57.4642

> <ConfNumber>
110

> <Ionization pH>
6.55_P

> <IonizationIndex>
1

> <MOL_NUMBER>
555

> <NumberOfIonizations>
2

> <NumberOfStereoisomers>
1

> <NumberOfTautomers>
3

> <PUBCHEM_ATOM_DEF_STEREO_COUNT>
2

> <PUBCHEM_ATOM_UDEF_STEREO_COUNT>
0

> <PUBCHEM_BOND_DEF_STEREO_COUNT>
0

> <PUBCHEM_BOND_UDEF_STEREO_COUNT>
0

> <PUBCHEM_CACTVS_TAUTO_COUNT>
36

> <PUBCHEM_COMPONENT_COUNT>
1

> <PUBCHEM_COMPOUND_CID>
21594782

> <PUBCHEM_CONFORMER_DIVERSEORDER>
1
160
170
55
76
117
8
45
114
158
131
28
122
86
168
157
129
37
143
137
84
133
100
102
14
167
20
97
75
108
54
89
36
73
39
146
42
109
138
63
120
159
126
38
149
62
139
57
64
58
144
156
70
152
164
128
47
111
107
140
154
87
11
171
80
161
61
92
163
46
67
136
91
23
127
118
124
148
172
103
151
104
50
169
32
34
19
88
135
33
166
74
115
141
41
13
7
3
134
125
52
165
17
113
150
65
82
71
77
35
153
95
98
142
105
112
78
9
30
90
16
121
145
155
26
116
93
43
51
69
119
59
60
15
130
162
79
12
147
40
31
18
94
110
68
123
53
106
10
5
44
48
25
22
21
96
81
2
49
56
66
132
99
27
72
24
29
83
85
101
4
6

> <PUBCHEM_CONFORMER_ID>
1498290

> <PUBCHEM_CONFORMER_RMSD>
1

> <PUBCHEM_COORDINATE_TYPE>
2
5
10

> <PUBCHEM_EFFECTIVE_ROTOR_COUNT>
8.4

> <PUBCHEM_FEATURE_SELFOVERLAP>
50.75

> <PUBCHEM_HEAVY_ATOM_COUNT>
26

> <PUBCHEM_ISOTOPIC_ATOM_COUNT>
0

> <PUBCHEM_MMFF94_ENERGY>
39.7533

> <PUBCHEM_MMFF94_PARTIAL_CHARGES>
27
1 -0.68
10 0.14
11 0.03
12 0.45
13 0.49
14 0.2
15 0.06
16 -0.29
18 -0.28
19 -0.29
2 -0.53
22 0.14
23 0.14
24 -0.28
25 0.14
26 0.14
3 -0.57
30 0.4
35 0.15
37 0.45
38 0.15
4 -0.57
5 -0.57
6 0.06
7 0.48
8 -0.06
9 0.49

> <PUBCHEM_PHARMACOPHORE_FEATURES>
10
1 1 acceptor
1 1 donor
1 2 donor
1 3 acceptor
1 4 acceptor
1 5 acceptor
3 17 20 21 hydrophobe
3 18 22 23 hydrophobe
3 24 25 26 hydrophobe
5 6 7 8 9 11 rings

> <PUBCHEM_SHAPE_FINGERPRINT>
11386260 185 17038648181808938269
11796584 16 13038620678832558644
12788726 201 18190448561936828275
13540713 5 18041547140459239874
14508225 48 17692530430778864983
14556957 393 17611198439181348932
14790565 3 18338238141816319417
14955137 171 17468773230663773331
15081414 286 17041479986426030323
15198563 99 18050290559374854253
15664445 248 16825875673177609748
15775530 1 17841415235697561081
15878777 1 10969672887499143219
16087824 20 18265897038116018491
16988056 13 17258470758600575415
17357779 13 17840867700540260398
17539 30 18195805403993435335
1813 80 17549281662224383382
21641784 216 17759820516655144772
2255824 54 17907009582749511259
22620623 9 18197229241813636478
22907989 373 18193271021206699686
23419403 2 13534945815325602370
23559900 14 17976819787630932066
23929065 36 18052512642468366064
266924 78 17766868051339976025
3057174 1 18267864982580561119
3388396 114 17035310596840115412
376196 1 17897444999998644161
394222 165 18042682797682680952
4017518 198 17984411950704727366
46194498 28 17540529120624127373
474 4 18118402847836716401

> <PUBCHEM_SHAPE_MULTIPOLES>
505.72
9.1
7.17
1.42
9.7
6.48
0.07
-11.83
4.36
-10.73
3.06
0.01
-0.19
-0.58

> <PUBCHEM_SHAPE_SELFOVERLAP>
1030.524

> <PUBCHEM_SHAPE_VOLUME>
293.7

> <RelativeEnergy>
10.7048

> <StereoisomerIndex>
1

> <TautomerIndex>
3

> <POSE_NUMBER>
2

> <LibDockScore>
106.966

> <HotSpots>
9.41,-1.33,-5.66,A,37,20
9.01,2.67,-14.05,A,21,22
16.61,6.47,-11.46,A,30,26

> <-In-Situ Starting Energy>
-2211.2005

> <-In-Situ Final Energy>
-60.1124581

> <In-Situ Gradient>
0.0009378209123

> <Favorable Total>
14

> <Unfavorable Total>
0

> <Charge Total>
0

> <Hydrophobic Total>
11

> <HydrogenBond Total>
3

> <Other Total>
0

> <Favorable A:LYS6>
0

> <Favorable A:ARG55>
0

> <Favorable A:LEU58>
0

> <Favorable A:LEU61>
1

> <Favorable A:ILE62>
0

> <Favorable A:GLY64>
0

> <Favorable A:SER65>
1

> <Favorable A:TRP66>
0

> <Favorable A:SER69>
0

> <Favorable A:VAL70>
0

> <Favorable A:PRO73>
0

> <Favorable A:ALA74>
0

> <Favorable A:PHE76>
1

> <Favorable A:ALA77>
0

> <Favorable A:THR78>
0

> <Favorable A:GLU79>
0

> <Favorable A:PHE82>
1

> <Favorable A:ARG83>
0

> <Favorable A:LEU85>
2

> <Favorable A:THR86>
2

> <Favorable A:TRP89>
2

> <Favorable A:THR90>
0

> <Favorable A:ASN93>
0

> <Favorable A:HIS94>
0

> <Favorable A:SER96>
0

> <Favorable A:VAL97>
0

> <Favorable A:TRP98>
0

> <Favorable A:PHE140>
0

> <Favorable A:LEU141>
0

> <Favorable A:ASN144>
0

> <Favorable A:ILE148>
0

> <Favorable A:ILE150>
0

> <Favorable A:HIS151>
0

> <Favorable A:ILE152>
0

> <Favorable A:ALA154>
0

> <Favorable A:SER155>
0

> <Favorable A:ILE156>
0

> <Favorable A:GLY158>
0

> <Favorable A:TYR159>
0

> <Favorable A:ARG160>
0

> <Favorable A:ARG161>
0

> <Favorable A:ASN162>
0

> <Favorable A:LYS163>
0

> <Favorable A:SER167>
0

> <Favorable A:ASP168>
0

> <Favorable A:SER169>
0

> <Favorable A:ASN171>
0

> <Favorable A:PHE172>
0

> <Favorable A:THR173>
0

> <Favorable A:ARG174>
0

> <Favorable A:PHE175>
0

> <Favorable A:SER176>
0

> <Favorable A:SER177>
0

> <Favorable A:LEU178>
0

> <Favorable A:ILE179>
1

> <Favorable A:VAL180>
2

> <Favorable A:LEU181>
0

> <Favorable A:SER183>
0

> <Favorable A:THR184>
0

> <Favorable A:PHE186>
0

> <Favorable A:ILE187>
0

> <Favorable A:PHE188>
0

> <Favorable A:ILE189>
0

> <Favorable A:PRO190>
0

> <Favorable A:PHE191>
0

> <Favorable A:TYR240>
0

> <Favorable A:PHE243>
0

> <Favorable A:SER244>
0

> <Favorable A:PHE247>
0

> <Favorable A:PHE248>
0

> <Favorable A:VAL251>
0

> <Favorable A:TRP252>
0

> <Favorable A:SER254>
0

> <Favorable A:GLU255>
0

> <Favorable A:ARG256>
0

> <Favorable A:LEU257>
0

> <Favorable A:GLU258>
0

> <Favorable A:GLU259>
0

> <Favorable A:LEU261>
0

> <Favorable A:ILE262>
1

> <Favorable A:ILE263>
0

> <Favorable A:SER265>
0

> <Favorable A:GLN266>
0

> <Favorable A:MET268>
0

> <Favorable A:GLY269>
0

> <Favorable A:TYR272>
0

> <Favorable A:PRO273>
0

> <Unfavorable A:ARG55>
0

> <Unfavorable A:PRO73>
0

> <Unfavorable A:PHE76>
0

> <Unfavorable A:GLU79>
0

> <Unfavorable A:ARG83>
0

> <Unfavorable A:THR86>
0

> <Unfavorable A:TRP89>
0

> <Unfavorable A:THR90>
0

> <Unfavorable A:ASN93>
0

> <Unfavorable A:TRP98>
0

> <Unfavorable A:ASN144>
0

> <Unfavorable A:SER155>
0

> <Unfavorable A:GLY158>
0

> <Unfavorable A:TYR159>
0

> <Unfavorable A:ASN162>
0

> <Unfavorable A:ASP168>
0

> <Unfavorable A:ASN171>
0

> <Unfavorable A:THR173>
0

> <Unfavorable A:ARG174>
0

> <Unfavorable A:SER183>
0

> <Unfavorable A:THR184>
0

> <Unfavorable A:PHE186>
0

> <Unfavorable A:SER244>
0

> <Unfavorable A:SER254>
0

> <Unfavorable A:GLU255>
0

> <Unfavorable A:SER265>
0

> <Unfavorable A:GLN266>
0

> <Unfavorable A:GLY269>
0

> <Charge A:ARG55>
0

> <Charge A:PHE76>
0

> <Charge A:GLU79>
0

> <Charge A:PHE82>
0

> <Charge A:ARG83>
0

> <Charge A:TRP89>
0

> <Charge A:HIS94>
0

> <Charge A:TRP98>
0

> <Charge A:TYR159>
0

> <Charge A:ARG161>
0

> <Charge A:LYS163>
0

> <Charge A:ASP168>
0

> <Charge A:PHE172>
0

> <Charge A:ARG174>
0

> <Charge A:PHE175>
0

> <Charge A:PHE188>
0

> <Charge A:PHE247>
0

> <Charge A:PHE248>
0

> <Hydrophobic A:LEU58>
0

> <Hydrophobic A:LEU61>
1

> <Hydrophobic A:ILE62>
0

> <Hydrophobic A:TRP66>
0

> <Hydrophobic A:VAL70>
0

> <Hydrophobic A:PRO73>
0

> <Hydrophobic A:ALA74>
0

> <Hydrophobic A:PHE76>
1

> <Hydrophobic A:ALA77>
0

> <Hydrophobic A:THR78>
0

> <Hydrophobic A:PHE82>
1

> <Hydrophobic A:ARG83>
0

> <Hydrophobic A:LEU85>
2

> <Hydrophobic A:TRP89>
2

> <Hydrophobic A:THR90>
0

> <Hydrophobic A:ASN93>
0

> <Hydrophobic A:HIS94>
0

> <Hydrophobic A:VAL97>
0

> <Hydrophobic A:TRP98>
0

> <Hydrophobic A:PHE140>
0

> <Hydrophobic A:LEU141>
0

> <Hydrophobic A:ILE148>
0

> <Hydrophobic A:ILE150>
0

> <Hydrophobic A:HIS151>
0

> <Hydrophobic A:ILE152>
0

> <Hydrophobic A:ALA154>
0

> <Hydrophobic A:SER155>
0

> <Hydrophobic A:ILE156>
0

> <Hydrophobic A:GLY158>
0

> <Hydrophobic A:TYR159>
0

> <Hydrophobic A:ARG160>
0

> <Hydrophobic A:ARG161>
0

> <Hydrophobic A:ASP168>
0

> <Hydrophobic A:ASN171>
0

> <Hydrophobic A:PHE172>
0

> <Hydrophobic A:ARG174>
0

> <Hydrophobic A:PHE175>
0

> <Hydrophobic A:LEU178>
0

> <Hydrophobic A:ILE179>
1

> <Hydrophobic A:VAL180>
2

> <Hydrophobic A:LEU181>
0

> <Hydrophobic A:PHE186>
0

> <Hydrophobic A:ILE187>
0

> <Hydrophobic A:PHE188>
0

> <Hydrophobic A:ILE189>
0

> <Hydrophobic A:PRO190>
0

> <Hydrophobic A:PHE191>
0

> <Hydrophobic A:TYR240>
0

> <Hydrophobic A:PHE243>
0

> <Hydrophobic A:PHE247>
0

> <Hydrophobic A:PHE248>
0

> <Hydrophobic A:VAL251>
0

> <Hydrophobic A:TRP252>
0

> <Hydrophobic A:SER254>
0

> <Hydrophobic A:LEU261>
0

> <Hydrophobic A:ILE262>
1

> <Hydrophobic A:ILE263>
0

> <Hydrophobic A:TYR272>
0

> <Hydrophobic A:PRO273>
0

> <HydrogenBond A:LYS6>
0

> <HydrogenBond A:ARG55>
0

> <HydrogenBond A:GLY64>
0

> <HydrogenBond A:SER65>
1

> <HydrogenBond A:TRP66>
0

> <HydrogenBond A:SER69>
0

> <HydrogenBond A:PRO73>
0

> <HydrogenBond A:ALA74>
0

> <HydrogenBond A:PHE76>
0

> <HydrogenBond A:ALA77>
0

> <HydrogenBond A:THR78>
0

> <HydrogenBond A:GLU79>
0

> <HydrogenBond A:PHE82>
0

> <HydrogenBond A:ARG83>
0

> <HydrogenBond A:LEU85>
0

> <HydrogenBond A:THR86>
2

> <HydrogenBond A:TRP89>
0

> <HydrogenBond A:THR90>
0

> <HydrogenBond A:ASN93>
0

> <HydrogenBond A:HIS94>
0

> <HydrogenBond A:SER96>
0

> <HydrogenBond A:TRP98>
0

> <HydrogenBond A:ASN144>
0

> <HydrogenBond A:HIS151>
0

> <HydrogenBond A:ILE152>
0

> <HydrogenBond A:ALA154>
0

> <HydrogenBond A:SER155>
0

> <HydrogenBond A:ILE156>
0

> <HydrogenBond A:GLY158>
0

> <HydrogenBond A:TYR159>
0

> <HydrogenBond A:ASN162>
0

> <HydrogenBond A:LYS163>
0

> <HydrogenBond A:SER167>
0

> <HydrogenBond A:ASP168>
0

> <HydrogenBond A:SER169>
0

> <HydrogenBond A:ASN171>
0

> <HydrogenBond A:PHE172>
0

> <HydrogenBond A:THR173>
0

> <HydrogenBond A:ARG174>
0

> <HydrogenBond A:PHE175>
0

> <HydrogenBond A:SER176>
0

> <HydrogenBond A:SER177>
0

> <HydrogenBond A:ILE179>
0

> <HydrogenBond A:VAL180>
0

> <HydrogenBond A:SER183>
0

> <HydrogenBond A:THR184>
0

> <HydrogenBond A:PHE186>
0

> <HydrogenBond A:ILE187>
0

> <HydrogenBond A:PRO190>
0

> <HydrogenBond A:TYR240>
0

> <HydrogenBond A:PHE243>
0

> <HydrogenBond A:SER244>
0

> <HydrogenBond A:PHE247>
0

> <HydrogenBond A:VAL251>
0

> <HydrogenBond A:SER254>
0

> <HydrogenBond A:GLU255>
0

> <HydrogenBond A:ARG256>
0

> <HydrogenBond A:LEU257>
0

> <HydrogenBond A:GLU258>
0

> <HydrogenBond A:GLU259>
0

> <HydrogenBond A:ILE262>
0

> <HydrogenBond A:SER265>
0

> <HydrogenBond A:GLN266>
0

> <HydrogenBond A:MET268>
0

> <HydrogenBond A:GLY269>
0

> <HydrogenBond A:PRO273>
0

> <Other A:SER69>
0

> <Other A:TRP89>
0

> <Other A:TYR159>
0

> <Other A:PHE172>
0

> <Other A:SER176>
0

> <Other A:SER265>
0

$$$$
23250008
  SciTegic09122300493D

 61 62  0  0  0  0            999 V2000
   11.1421    3.4676  -12.0022 O   0  0  0  1  0  0
   10.3110   -1.0859  -10.4869 O   0  0  0  1  0  0
   13.8639    1.4981   -8.5899 O   0  0  0  1  0  0
   13.7548    4.2819  -11.0202 O   0  0  0  1  0  0
   13.0760    5.7520   -2.5406 O   0  0  0  1  0  0
   10.6643    1.2092  -11.2512 C   0  0  0  1  0  0
   12.0852    0.2114   -9.5703 C   0  0  0  1  0  0
   11.0173    0.1152  -10.4593 C   0  0  0  1  0  0
   11.4390    2.3680  -11.2056 C   0  0  0  1  0  0
   12.4817    2.4712  -10.3032 C   0  0  0  1  0  0
    9.4786    1.1307  -12.1621 C   0  0  0  1  0  0
   12.8265    1.3877   -9.5010 C   0  0  0  1  0  0
   12.3358   -0.9191   -8.6144 C   0  0  0  1  0  0
    8.7008    2.3742  -12.3626 C   0  0  0  1  0  0
   11.1982   -1.0169   -7.6330 C   0  0  0  1  0  0
   13.1338    3.7682  -10.1386 C   0  0  0  1  0  0
    8.0456    2.6766  -13.4824 C   0  0  0  1  0  0
   11.1707   -0.6459   -6.3427 C   0  0  0  1  0  0
   13.0287    4.4545   -8.8338 C   0  0  0  1  0  0
    7.2365    3.9143  -13.4523 C   0  0  0  1  0  0
    8.1325    1.9972  -14.8091 C   0  0  0  1  0  0
   11.7280    3.3534  -13.2849 C   0  0  0  1  0  0
    9.9696   -0.9761   -5.4911 C   0  0  0  1  0  0
   12.3486   -0.0860   -5.5842 C   0  0  0  1  0  0
   12.2300    4.0235   -7.8275 C   0  0  0  1  0  0
   12.3798    4.5441   -6.4652 C   0  0  0  1  0  0
   13.5597    5.1515   -6.0908 C   0  0  0  1  0  0
   11.4167    4.3262   -5.4899 C   0  0  0  1  0  0
   13.8192    5.4340   -4.7693 C   0  0  0  1  0  0
   11.5809    4.8627   -4.2168 C   0  0  0  1  0  0
   12.8187    5.3463   -3.8308 C   0  0  0  1  0  0
    9.8211   -1.2584  -11.2837 H   0  0
   14.6678    1.1579   -8.9659 H   0  0
   13.8153    6.3563   -2.5726 H   0  0
    9.8533    0.7428  -13.0973 H   0  0
    8.6929    0.5053  -11.7528 H   0  0
   12.4325   -1.8470   -9.1729 H   0  0
   13.2846   -0.7908   -8.1027 H   0  0
    8.7430    3.0898  -11.5638 H   0  0
   10.3330   -1.5113   -8.0251 H   0  0
   13.6557    5.3196   -8.7482 H   0  0
    7.9000    4.6949  -13.1039 H   0  0
    6.4474    3.7799  -12.7370 H   0  0
    6.7700    4.1680  -14.3987 H   0  0
    8.9838    1.3372  -14.8897 H   0  0
    8.3379    2.7488  -15.5280 H   0  0
    7.2021    1.5090  -15.0927 H   0  0
   11.3646    2.4686  -13.8088 H   0  0
   12.8157    3.3035  -13.2147 H   0  0
   11.4693    4.2267  -13.8837 H   0  0
    9.2904   -1.6567   -6.0031 H   0  0
    9.4113   -0.0774   -5.2414 H   0  0
   10.2646   -1.4516   -4.5598 H   0  0
   12.1977    0.9729   -5.3752 H   0  0
   13.2795   -0.1798   -6.1384 H   0  0
   12.4900   -0.6139   -4.6430 H   0  0
   11.4785    3.2695   -7.9747 H   0  0
   14.3132    5.3700   -6.8138 H   0  0
   10.5627    3.7079   -5.6981 H   0  0
   14.8009    5.7698   -4.5042 H   0  0
   10.7911    4.7866   -3.4874 H   0  0
  1  9  1  0
  1 22  1  0
  2  8  1  0
  3 12  1  0
  4 16  2  0
  5 31  1  0
  6  8  2  0
  6  9  1  0
  6 11  1  0
  7  8  1  0
  7 12  2  0
  7 13  1  0
  9 10  2  0
 10 12  1  0
 10 16  1  0
 11 14  1  0
 13 15  1  0
 14 17  2  0
 15 18  2  0
 16 19  1  0
 17 20  1  0
 17 21  1  0
 18 23  1  0
 18 24  1  0
 19 25  2  0
 25 26  1  0
 26 27  2  0
 26 28  1  0
 27 29  1  0
 28 30  2  0
 29 31  2  0
 30 31  1  0
  2 32  1  0
  3 33  1  0
  5 34  1  0
 11 35  1  0
 11 36  1  0
 13 37  1  0
 13 38  1  0
 14 39  1  0
 15 40  1  0
 19 41  1  0
 20 42  1  0
 20 43  1  0
 20 44  1  0
 21 45  1  0
 21 46  1  0
 21 47  1  0
 22 48  1  0
 22 49  1  0
 22 50  1  0
 23 51  1  0
 23 52  1  0
 23 53  1  0
 24 54  1  0
 24 55  1  0
 24 56  1  0
 25 57  1  0
 27 58  1  0
 28 59  1  0
 29 60  1  0
 30 61  1  0
M  END
> <Name>
23250008

> <Binding Energy>
-42.6398

> <Ligand Energy>
100.8679

> <Protein Energy>
-7801.1566

> <Complex Energy>
-7742.9286

> <Complex Entropy>
-31.4856

> <Protein Entropy>
-31.4717

> <Ligand Entropy>
-20.3876

> <Entropic Energy>
20.3737

> <AbsoluteEnergy>
76.3798

> <ConfNumber>
39

> <Ionization pH>
7.5

> <IonizationIndex>
1

> <MOL_NUMBER>
563

> <NumberOfIonizations>
1

> <NumberOfStereoisomers>
1

> <NumberOfTautomers>
4

> <PUBCHEM_ATOM_DEF_STEREO_COUNT>
0

> <PUBCHEM_ATOM_UDEF_STEREO_COUNT>
0

> <PUBCHEM_BOND_DEF_STEREO_COUNT>
1

> <PUBCHEM_BOND_UDEF_STEREO_COUNT>
0

> <PUBCHEM_CACTVS_TAUTO_COUNT>
57

> <PUBCHEM_COMPONENT_COUNT>
1

> <PUBCHEM_COMPOUND_CID>
23250008

> <PUBCHEM_CONFORMER_DIVERSEORDER>
2
83
107
36
116
67
35
77
21
40
20
111
25
11
53
69
31
34
18
65
101
119
120
114
90
47
26
105
108
94
19
32
59
41
104
121
95
27
58
28
84
117
115
15
73
13
112
62
118
63
7
4
96
82
12
42
54
75
98
74
81
24
17
109
29
99
50
10
45
79
100
86
106
70
52
76
89
23
9
88
60
80
22
14
71
66
8
103
49
44
39
113
48
16
92
46
33
93
68
122
72
1
37
102
61
51
30
64
97
57
6
87
56
5
78
3
85
43
110
91
55
38

> <PUBCHEM_CONFORMER_ID>
0162C45800000002

> <PUBCHEM_CONFORMER_RMSD>
1

> <PUBCHEM_COORDINATE_TYPE>
2
5
10

> <PUBCHEM_EFFECTIVE_ROTOR_COUNT>
8

> <PUBCHEM_FEATURE_SELFOVERLAP>
45.671

> <PUBCHEM_HEAVY_ATOM_COUNT>
31

> <PUBCHEM_ISOTOPIC_ATOM_COUNT>
0

> <PUBCHEM_MMFF94_ENERGY>
98.7809

> <PUBCHEM_MMFF94_PARTIAL_CHARGES>
42
1 -0.36
10 0.09
11 0.28
12 0.08
13 0.28
14 -0.29
15 -0.29
16 0.47
17 -0.28
18 -0.28
19 -0.14
2 -0.53
20 0.14
21 0.14
22 0.28
23 0.14
24 0.14
25 -0.18
26 0.03
27 -0.15
28 -0.15
29 -0.15
3 -0.53
30 -0.15
31 0.08
36 0.15
37 0.15
38 0.45
39 0.45
4 -0.57
40 0.15
5 -0.53
56 0.15
57 0.15
58 0.15
59 0.15
6 -0.14
60 0.15
61 0.45
7 -0.14
8 0.08
9 0.08

> <PUBCHEM_PHARMACOPHORE_FEATURES>
9
1 1 acceptor
1 2 donor
1 3 donor
1 4 acceptor
1 5 donor
3 17 20 21 hydrophobe
3 18 23 24 hydrophobe
6 26 27 28 29 30 31 rings
6 6 7 8 9 10 12 rings

> <PUBCHEM_SHAPE_FINGERPRINT>
10076449 9 18125445211761257446
10169797 241 18040998397566927235
10319688 140 18410294666781300550
10411042 1 18051128086894210018
10554248 39 18270380712988891349
10670039 82 16128113203827607145
10674148 151 17917157212451115396
10721379 63 18343310236768842876
11505856 67 17182222950965219332
11763715 3 17690302416974535630
12160290 23 17035532676982087482
12166972 35 18129941153392529907
13008946 119 17984417714391953768
13140716 1 18118381051494153400
13533116 47 18341048532655116995
13540713 5 18125696093147348470
13673619 4 18044380430925534087
13757389 114 17326912067225927206
13785724 45 18055637209232000718
13955234 65 18410009914554697354
14114211 68 18337966682993408948
14790565 3 18120367911665541036
15183329 4 14835862693586881029
15297060 5 18268431420316958488
15324884 4 17460008735362183855
15392192 104 18189055451309142681
15420108 30 18193267731636732450
15684393 108 7925042805153927961
15927050 60 18268711782469878286
16992787 43 18341335509849229502
17913733 40 18336548334199103593
1813 80 17915179005794745390
19319366 153 18272082855208627976
20505436 4 17916586573782606373
21033648 29 17530953671689838429
21033650 10 15482407416882772907
21049683 271 18262527975073128302
21365058 113 18124602985653239270
21756936 100 18055065720878462965
21927370 108 18051691036958440482
24180151 248 18261116219122960708
24771750 20 18335426798775326718
249999 5 18409448085524176946
27425 322 18126002921695920020
3178227 256 18334005087106069672
3411729 13 18260263083529178944
38570 142 18201165467370986653
4144715 1 18186806851489335441
4516262 110 18340196501159296429
5385378 56 18410575114733722441
54076057 127 18410301323885598963
58260988 587 18336273413526673816
5912855 24 18200302364387883071
6703917 75 17977953715053313972
86090 222 17822862957581757107
9896288 288 17905609157076206714
9962374 69 18341315713907495647

> <PUBCHEM_SHAPE_MULTIPOLES>
608.62
16.98
6.27
1.49
36.73
4.58
-0.19
-11.64
2.54
-19.03
-0.8
0.39
-0.17
0.58

> <PUBCHEM_SHAPE_SELFOVERLAP>
1280.982

> <PUBCHEM_SHAPE_VOLUME>
344.4

> <RelativeEnergy>
8.58114

> <StereoisomerIndex>
1

> <TautomerIndex>
1

> <POSE_NUMBER>
3

> <LibDockScore>
112.7923

> <HotSpots>
9.01,2.67,-14.05,A,21,21
9.41,-1.33,-5.66,A,37,23
13.41,5.07,-3.25,A,44,29

> <-In-Situ Starting Energy>
-1295.4441

> <-In-Situ Final Energy>
-48.9365089

> <In-Situ Gradient>
0.000849399263

> <Favorable Total>
14

> <Unfavorable Total>
0

> <Charge Total>
0

> <Hydrophobic Total>
12

> <HydrogenBond Total>
2

> <Other Total>
0

> <Favorable A:LYS6>
0

> <Favorable A:ARG55>
0

> <Favorable A:LEU58>
0

> <Favorable A:LEU61>
1

> <Favorable A:ILE62>
0

> <Favorable A:GLY64>
0

> <Favorable A:SER65>
1

> <Favorable A:TRP66>
0

> <Favorable A:SER69>
0

> <Favorable A:VAL70>
0

> <Favorable A:PRO73>
0

> <Favorable A:ALA74>
0

> <Favorable A:PHE76>
1

> <Favorable A:ALA77>
0

> <Favorable A:THR78>
0

> <Favorable A:GLU79>
0

> <Favorable A:PHE82>
0

> <Favorable A:ARG83>
0

> <Favorable A:LEU85>
2

> <Favorable A:THR86>
0

> <Favorable A:TRP89>
5

> <Favorable A:THR90>
0

> <Favorable A:ASN93>
0

> <Favorable A:HIS94>
0

> <Favorable A:SER96>
0

> <Favorable A:VAL97>
0

> <Favorable A:TRP98>
0

> <Favorable A:PHE140>
0

> <Favorable A:LEU141>
0

> <Favorable A:ASN144>
0

> <Favorable A:ILE148>
0

> <Favorable A:ILE150>
0

> <Favorable A:HIS151>
0

> <Favorable A:ILE152>
0

> <Favorable A:ALA154>
0

> <Favorable A:SER155>
0

> <Favorable A:ILE156>
0

> <Favorable A:GLY158>
0

> <Favorable A:TYR159>
0

> <Favorable A:ARG160>
0

> <Favorable A:ARG161>
0

> <Favorable A:ASN162>
0

> <Favorable A:LYS163>
0

> <Favorable A:SER167>
0

> <Favorable A:ASP168>
0

> <Favorable A:SER169>
0

> <Favorable A:ASN171>
0

> <Favorable A:PHE172>
0

> <Favorable A:THR173>
0

> <Favorable A:ARG174>
0

> <Favorable A:PHE175>
0

> <Favorable A:SER176>
0

> <Favorable A:SER177>
0

> <Favorable A:LEU178>
0

> <Favorable A:ILE179>
0

> <Favorable A:VAL180>
2

> <Favorable A:LEU181>
0

> <Favorable A:SER183>
0

> <Favorable A:THR184>
0

> <Favorable A:PHE186>
0

> <Favorable A:ILE187>
0

> <Favorable A:PHE188>
0

> <Favorable A:ILE189>
0

> <Favorable A:PRO190>
0

> <Favorable A:PHE191>
0

> <Favorable A:TYR240>
0

> <Favorable A:PHE243>
0

> <Favorable A:SER244>
0

> <Favorable A:PHE247>
2

> <Favorable A:PHE248>
0

> <Favorable A:VAL251>
0

> <Favorable A:TRP252>
0

> <Favorable A:SER254>
0

> <Favorable A:GLU255>
0

> <Favorable A:ARG256>
0

> <Favorable A:LEU257>
0

> <Favorable A:GLU258>
0

> <Favorable A:GLU259>
0

> <Favorable A:LEU261>
0

> <Favorable A:ILE262>
0

> <Favorable A:ILE263>
0

> <Favorable A:SER265>
0

> <Favorable A:GLN266>
0

> <Favorable A:MET268>
0

> <Favorable A:GLY269>
0

> <Favorable A:TYR272>
0

> <Favorable A:PRO273>
0

> <Unfavorable A:ARG55>
0

> <Unfavorable A:PRO73>
0

> <Unfavorable A:PHE76>
0

> <Unfavorable A:GLU79>
0

> <Unfavorable A:ARG83>
0

> <Unfavorable A:THR86>
0

> <Unfavorable A:TRP89>
0

> <Unfavorable A:THR90>
0

> <Unfavorable A:ASN93>
0

> <Unfavorable A:TRP98>
0

> <Unfavorable A:ASN144>
0

> <Unfavorable A:SER155>
0

> <Unfavorable A:GLY158>
0

> <Unfavorable A:TYR159>
0

> <Unfavorable A:ASN162>
0

> <Unfavorable A:ASP168>
0

> <Unfavorable A:ASN171>
0

> <Unfavorable A:THR173>
0

> <Unfavorable A:ARG174>
0

> <Unfavorable A:SER183>
0

> <Unfavorable A:THR184>
0

> <Unfavorable A:PHE186>
0

> <Unfavorable A:SER244>
0

> <Unfavorable A:SER254>
0

> <Unfavorable A:GLU255>
0

> <Unfavorable A:SER265>
0

> <Unfavorable A:GLN266>
0

> <Unfavorable A:GLY269>
0

> <Charge A:ARG55>
0

> <Charge A:PHE76>
0

> <Charge A:GLU79>
0

> <Charge A:PHE82>
0

> <Charge A:ARG83>
0

> <Charge A:TRP89>
0

> <Charge A:HIS94>
0

> <Charge A:TRP98>
0

> <Charge A:TYR159>
0

> <Charge A:ARG161>
0

> <Charge A:LYS163>
0

> <Charge A:ASP168>
0

> <Charge A:PHE172>
0

> <Charge A:ARG174>
0

> <Charge A:PHE175>
0

> <Charge A:PHE188>
0

> <Charge A:PHE247>
0

> <Charge A:PHE248>
0

> <Hydrophobic A:LEU58>
0

> <Hydrophobic A:LEU61>
1

> <Hydrophobic A:ILE62>
0

> <Hydrophobic A:TRP66>
0

> <Hydrophobic A:VAL70>
0

> <Hydrophobic A:PRO73>
0

> <Hydrophobic A:ALA74>
0

> <Hydrophobic A:PHE76>
1

> <Hydrophobic A:ALA77>
0

> <Hydrophobic A:THR78>
0

> <Hydrophobic A:PHE82>
0

> <Hydrophobic A:ARG83>
0

> <Hydrophobic A:LEU85>
2

> <Hydrophobic A:TRP89>
5

> <Hydrophobic A:THR90>
0

> <Hydrophobic A:ASN93>
0

> <Hydrophobic A:HIS94>
0

> <Hydrophobic A:VAL97>
0

> <Hydrophobic A:TRP98>
0

> <Hydrophobic A:PHE140>
0

> <Hydrophobic A:LEU141>
0

> <Hydrophobic A:ILE148>
0

> <Hydrophobic A:ILE150>
0

> <Hydrophobic A:HIS151>
0

> <Hydrophobic A:ILE152>
0

> <Hydrophobic A:ALA154>
0

> <Hydrophobic A:SER155>
0

> <Hydrophobic A:ILE156>
0

> <Hydrophobic A:GLY158>
0

> <Hydrophobic A:TYR159>
0

> <Hydrophobic A:ARG160>
0

> <Hydrophobic A:ARG161>
0

> <Hydrophobic A:ASP168>
0

> <Hydrophobic A:ASN171>
0

> <Hydrophobic A:PHE172>
0

> <Hydrophobic A:ARG174>
0

> <Hydrophobic A:PHE175>
0

> <Hydrophobic A:LEU178>
0

> <Hydrophobic A:ILE179>
0

> <Hydrophobic A:VAL180>
1

> <Hydrophobic A:LEU181>
0

> <Hydrophobic A:PHE186>
0

> <Hydrophobic A:ILE187>
0

> <Hydrophobic A:PHE188>
0

> <Hydrophobic A:ILE189>
0

> <Hydrophobic A:PRO190>
0

> <Hydrophobic A:PHE191>
0

> <Hydrophobic A:TYR240>
0

> <Hydrophobic A:PHE243>
0

> <Hydrophobic A:PHE247>
2

> <Hydrophobic A:PHE248>
0

> <Hydrophobic A:VAL251>
0

> <Hydrophobic A:TRP252>
0

> <Hydrophobic A:SER254>
0

> <Hydrophobic A:LEU261>
0

> <Hydrophobic A:ILE262>
0

> <Hydrophobic A:ILE263>
0

> <Hydrophobic A:TYR272>
0

> <Hydrophobic A:PRO273>
0

> <HydrogenBond A:LYS6>
0

> <HydrogenBond A:ARG55>
0

> <HydrogenBond A:GLY64>
0

> <HydrogenBond A:SER65>
1

> <HydrogenBond A:TRP66>
0

> <HydrogenBond A:SER69>
0

> <HydrogenBond A:PRO73>
0

> <HydrogenBond A:ALA74>
0

> <HydrogenBond A:PHE76>
0

> <HydrogenBond A:ALA77>
0

> <HydrogenBond A:THR78>
0

> <HydrogenBond A:GLU79>
0

> <HydrogenBond A:PHE82>
0

> <HydrogenBond A:ARG83>
0

> <HydrogenBond A:LEU85>
0

> <HydrogenBond A:THR86>
0

> <HydrogenBond A:TRP89>
0

> <HydrogenBond A:THR90>
0

> <HydrogenBond A:ASN93>
0

> <HydrogenBond A:HIS94>
0

> <HydrogenBond A:SER96>
0

> <HydrogenBond A:TRP98>
0

> <HydrogenBond A:ASN144>
0

> <HydrogenBond A:HIS151>
0

> <HydrogenBond A:ILE152>
0

> <HydrogenBond A:ALA154>
0

> <HydrogenBond A:SER155>
0

> <HydrogenBond A:ILE156>
0

> <HydrogenBond A:GLY158>
0

> <HydrogenBond A:TYR159>
0

> <HydrogenBond A:ASN162>
0

> <HydrogenBond A:LYS163>
0

> <HydrogenBond A:SER167>
0

> <HydrogenBond A:ASP168>
0

> <HydrogenBond A:SER169>
0

> <HydrogenBond A:ASN171>
0

> <HydrogenBond A:PHE172>
0

> <HydrogenBond A:THR173>
0

> <HydrogenBond A:ARG174>
0

> <HydrogenBond A:PHE175>
0

> <HydrogenBond A:SER176>
0

> <HydrogenBond A:SER177>
0

> <HydrogenBond A:ILE179>
0

> <HydrogenBond A:VAL180>
1

> <HydrogenBond A:SER183>
0

> <HydrogenBond A:THR184>
0

> <HydrogenBond A:PHE186>
0

> <HydrogenBond A:ILE187>
0

> <HydrogenBond A:PRO190>
0

> <HydrogenBond A:TYR240>
0

> <HydrogenBond A:PHE243>
0

> <HydrogenBond A:SER244>
0

> <HydrogenBond A:PHE247>
0

> <HydrogenBond A:VAL251>
0

> <HydrogenBond A:SER254>
0

> <HydrogenBond A:GLU255>
0

> <HydrogenBond A:ARG256>
0

> <HydrogenBond A:LEU257>
0

> <HydrogenBond A:GLU258>
0

> <HydrogenBond A:GLU259>
0

> <HydrogenBond A:ILE262>
0

> <HydrogenBond A:SER265>
0

> <HydrogenBond A:GLN266>
0

> <HydrogenBond A:MET268>
0

> <HydrogenBond A:GLY269>
0

> <HydrogenBond A:PRO273>
0

> <Other A:SER69>
0

> <Other A:TRP89>
0

> <Other A:TYR159>
0

> <Other A:PHE172>
0

> <Other A:SER176>
0

> <Other A:SER265>
0

$$$$
23251203
  SciTegic09122300493D

 48 50  0  0  0  0            999 V2000
   13.3135   -4.5485  -14.2193 O   0  0  0  1  0  0
   17.6540   -3.1188  -15.8679 O   0  0  0  1  0  0
   14.1771    0.0985  -14.8937 O   0  0  0  1  0  0
   11.5056   -2.2480  -14.5117 O   0  0  0  1  0  0
   12.6749    0.7577   -6.4781 O   0  0  0  1  0  0
   13.7263   -5.8650  -13.8716 C   0  0  0  1  0  0
   15.2506   -6.0627  -13.8324 C   0  0  0  1  0  0
   16.0025   -5.3063  -14.9189 C   0  0  0  1  0  0
   15.5487   -3.8730  -14.9427 C   0  0  0  1  0  0
   14.2580   -3.5542  -14.5137 C   0  0  0  1  0  0
   13.0903   -5.9586  -12.4966 C   0  0  0  1  0  0
   13.0829   -6.9693  -14.7366 C   0  0  0  1  0  0
   13.8404   -2.2213  -14.4781 C   0  0  0  1  0  0
   16.3816   -2.8534  -15.3991 C   0  0  0  1  0  0
   14.6770   -1.2057  -14.9301 C   0  0  0  1  0  0
   15.9511   -1.5356  -15.3890 C   0  0  0  1  0  0
   12.5038   -1.8797  -13.9731 C   0  0  0  1  0  0
   12.3250   -1.1207  -12.7059 C   0  0  0  1  0  0
   14.8788    1.0582  -15.6597 C   0  0  0  1  0  0
   13.3300   -0.8780  -11.8379 C   0  0  0  1  0  0
   13.1355   -0.3412  -10.4791 C   0  0  0  1  0  0
   14.2515   -0.1540   -9.6669 C   0  0  0  1  0  0
   11.8670   -0.0981   -9.9493 C   0  0  0  1  0  0
   14.1080    0.2251   -8.3381 C   0  0  0  1  0  0
   11.7265    0.2868   -8.6216 C   0  0  0  1  0  0
   12.8403    0.4276   -7.8085 C   0  0  0  1  0  0
   17.6247   -3.7829  -16.5455 H   0  0
   13.1598    0.1375   -5.9479 H   0  0
   15.5164   -7.1205  -13.8351 H   0  0
   15.6134   -5.6777  -12.9007 H   0  0
   17.0694   -5.3603  -14.7000 H   0  0
   15.8544   -5.7672  -15.8921 H   0  0
   12.7147   -4.9879  -12.2138 H   0  0
   13.7775   -6.2776  -11.7233 H   0  0
   12.2080   -6.5872  -12.4959 H   0  0
   13.6906   -7.2605  -15.5869 H   0  0
   12.0807   -6.6990  -15.0625 H   0  0
   12.9813   -7.8905  -14.1627 H   0  0
   16.6355   -0.7817  -15.7440 H   0  0
   11.3190   -0.8036  -12.5176 H   0  0
   14.9695    0.7397  -16.6996 H   0  0
   15.8670    1.2496  -15.2400 H   0  0
   14.3295    1.9996  -15.6492 H   0  0
   14.3443   -1.1009  -12.1113 H   0  0
   15.2450   -0.3255  -10.0554 H   0  0
   10.9655   -0.2140  -10.5291 H   0  0
   14.9909    0.3522   -7.7280 H   0  0
   10.7457    0.4602   -8.2088 H   0  0
  1  6  1  0
  1 10  1  0
  2 14  1  0
  3 15  1  0
  3 19  1  0
  4 17  2  0
  5 26  1  0
  6  7  1  0
  6 11  1  0
  6 12  1  0
  7  8  1  0
  8  9  1  0
  9 10  2  0
  9 14  1  0
 10 13  1  0
 13 15  2  0
 13 17  1  0
 14 16  2  0
 15 16  1  0
 17 18  1  0
 18 20  2  0
 20 21  1  0
 21 22  2  0
 21 23  1  0
 22 24  1  0
 23 25  2  0
 24 26  2  0
 25 26  1  0
  2 27  1  0
  5 28  1  0
  7 29  1  0
  7 30  1  0
  8 31  1  0
  8 32  1  0
 11 33  1  0
 11 34  1  0
 11 35  1  0
 12 36  1  0
 12 37  1  0
 12 38  1  0
 16 39  1  0
 18 40  1  0
 19 41  1  0
 19 42  1  0
 19 43  1  0
 20 44  1  0
 22 45  1  0
 23 46  1  0
 24 47  1  0
 25 48  1  0
M  END
> <Name>
23251203

> <Binding Energy>
-46.7871

> <Ligand Energy>
29.353

> <Protein Energy>
-7801.1566

> <Complex Energy>
-7818.5908

> <Complex Entropy>
-31.4854

> <Protein Entropy>
-31.4717

> <Ligand Entropy>
-19.9336

> <Entropic Energy>
19.9199

> <AbsoluteEnergy>
69.0397

> <ConfNumber>
11

> <Ionization pH>
7.5

> <IonizationIndex>
1

> <MOL_NUMBER>
574

> <NumberOfIonizations>
1

> <NumberOfStereoisomers>
1

> <NumberOfTautomers>
3

> <PUBCHEM_ATOM_DEF_STEREO_COUNT>
0

> <PUBCHEM_ATOM_UDEF_STEREO_COUNT>
0

> <PUBCHEM_BOND_DEF_STEREO_COUNT>
1

> <PUBCHEM_BOND_UDEF_STEREO_COUNT>
0

> <PUBCHEM_CACTVS_TAUTO_COUNT>
10

> <PUBCHEM_COMPONENT_COUNT>
1

> <PUBCHEM_COMPOUND_CID>
23251203

> <PUBCHEM_CONFORMER_DIVERSEORDER>
1
9
8
18
19
7
17
2
11
12
3
13
16
10
15
5
14
21
20
6
4

> <PUBCHEM_CONFORMER_ID>
0162C90300000001

> <PUBCHEM_CONFORMER_RMSD>
0.8

> <PUBCHEM_COORDINATE_TYPE>
2
5
10

> <PUBCHEM_EFFECTIVE_ROTOR_COUNT>
4.8

> <PUBCHEM_FEATURE_SELFOVERLAP>
45.701

> <PUBCHEM_HEAVY_ATOM_COUNT>
26

> <PUBCHEM_ISOTOPIC_ATOM_COUNT>
0

> <PUBCHEM_MMFF94_ENERGY>
95.4834

> <PUBCHEM_MMFF94_PARTIAL_CHARGES>
32
1 -0.36
10 0.08
13 0.09
14 0.08
15 0.08
16 -0.15
17 0.47
18 -0.14
19 0.28
2 -0.53
20 -0.18
21 0.03
22 -0.15
23 -0.15
24 -0.15
25 -0.15
26 0.08
3 -0.36
37 0.15
38 0.45
39 0.15
4 -0.57
43 0.15
44 0.15
45 0.15
46 0.15
47 0.15
48 0.45
5 -0.53
6 0.28
8 0.14
9 -0.14

> <PUBCHEM_PHARMACOPHORE_FEATURES>
9
1 1 acceptor
1 2 donor
1 3 acceptor
1 4 acceptor
1 5 donor
3 6 11 12 hydrophobe
6 1 6 7 8 9 10 rings
6 21 22 23 24 25 26 rings
6 9 10 13 14 15 16 rings

> <PUBCHEM_SHAPE_FINGERPRINT>
10693767 8 17987805103384881454
11595378 159 14562796726228629861
12403259 415 18187088399078965985
12730499 353 18336272322631763987
12769317 202 18408036325378826779
13402501 40 18259703423536595629
13911987 19 18267047062352535702
14251757 17 18261671480862978765
14681490 219 18413106139415098221
14931854 50 18335989657627203372
15081414 286 18336274538771974697
15210252 30 17749398065605514716
16988056 13 18409444825449938189
17093844 170 18261670467288009940
17492 54 18188790400287482196
17844677 252 18412831261987357723
17909252 39 18200031733738604088
18608769 82 17896050987143236955
21033648 29 17967533519203697281
21285901 2 17968657107880019429
21792961 116 18115046133938131394
221357 26 18411135810330252533
22289505 5 18408882910651199789
22393880 68 18261388983868525251
23227448 37 18265050417750365839
23559900 14 18409726279541564369
238 59 18340777055903407034
3060560 45 18343304781918147470
340366 18 18060138777355606438
46194498 28 18114187496628804013
495365 180 18270676584094227160
508706 21 17896037827136536547
5312625 73 18336547218145799435
53794403 172 17750803344866800437
574716 61 17987788739505839301
59755656 215 18260546732054630013
6443956 14 18412268350082565276
7471813 234 17704075087953577520

> <PUBCHEM_SHAPE_MULTIPOLES>
505.72
11.95
4.04
1.26
20.8
0.31
-0.16
1.45
4.96
-4.54
-0.18
0.11
0.04
1.43

> <PUBCHEM_SHAPE_SELFOVERLAP>
1095.636

> <PUBCHEM_SHAPE_VOLUME>
276.5

> <RelativeEnergy>
12.0806

> <StereoisomerIndex>
1

> <TautomerIndex>
1

> <POSE_NUMBER>
1

> <LibDockScore>
57.9859

> <HotSpots>
11.41,-3.13,-14.46,P,20,4
15.61,-6.73,-13.65,A,23,8
13.01,-7.53,-14.86,A,17,12

> <-In-Situ Starting Energy>
-7962.97633

> <-In-Situ Final Energy>
-2.26926765

> <In-Situ Gradient>
0.003576044742

> <Favorable Total>
12

> <Unfavorable Total>
0

> <Charge Total>
0

> <Hydrophobic Total>
9

> <HydrogenBond Total>
3

> <Other Total>
0

> <Favorable A:LYS6>
0

> <Favorable A:ARG55>
0

> <Favorable A:LEU58>
0

> <Favorable A:LEU61>
0

> <Favorable A:ILE62>
0

> <Favorable A:GLY64>
0

> <Favorable A:SER65>
0

> <Favorable A:TRP66>
2

> <Favorable A:SER69>
1

> <Favorable A:VAL70>
1

> <Favorable A:PRO73>
0

> <Favorable A:ALA74>
0

> <Favorable A:PHE76>
0

> <Favorable A:ALA77>
0

> <Favorable A:THR78>
0

> <Favorable A:GLU79>
0

> <Favorable A:PHE82>
0

> <Favorable A:ARG83>
0

> <Favorable A:LEU85>
0

> <Favorable A:THR86>
0

> <Favorable A:TRP89>
1

> <Favorable A:THR90>
0

> <Favorable A:ASN93>
0

> <Favorable A:HIS94>
0

> <Favorable A:SER96>
0

> <Favorable A:VAL97>
0

> <Favorable A:TRP98>
0

> <Favorable A:PHE140>
0

> <Favorable A:LEU141>
0

> <Favorable A:ASN144>
0

> <Favorable A:ILE148>
0

> <Favorable A:ILE150>
0

> <Favorable A:HIS151>
0

> <Favorable A:ILE152>
0

> <Favorable A:ALA154>
0

> <Favorable A:SER155>
0

> <Favorable A:ILE156>
0

> <Favorable A:GLY158>
0

> <Favorable A:TYR159>
0

> <Favorable A:ARG160>
0

> <Favorable A:ARG161>
0

> <Favorable A:ASN162>
0

> <Favorable A:LYS163>
0

> <Favorable A:SER167>
0

> <Favorable A:ASP168>
0

> <Favorable A:SER169>
0

> <Favorable A:ASN171>
0

> <Favorable A:PHE172>
0

> <Favorable A:THR173>
0

> <Favorable A:ARG174>
0

> <Favorable A:PHE175>
0

> <Favorable A:SER176>
0

> <Favorable A:SER177>
0

> <Favorable A:LEU178>
0

> <Favorable A:ILE179>
0

> <Favorable A:VAL180>
0

> <Favorable A:LEU181>
0

> <Favorable A:SER183>
0

> <Favorable A:THR184>
0

> <Favorable A:PHE186>
0

> <Favorable A:ILE187>
0

> <Favorable A:PHE188>
0

> <Favorable A:ILE189>
0

> <Favorable A:PRO190>
0

> <Favorable A:PHE191>
0

> <Favorable A:TYR240>
0

> <Favorable A:PHE243>
0

> <Favorable A:SER244>
0

> <Favorable A:PHE247>
0

> <Favorable A:PHE248>
0

> <Favorable A:VAL251>
0

> <Favorable A:TRP252>
0

> <Favorable A:SER254>
0

> <Favorable A:GLU255>
0

> <Favorable A:ARG256>
0

> <Favorable A:LEU257>
0

> <Favorable A:GLU258>
0

> <Favorable A:GLU259>
0

> <Favorable A:LEU261>
0

> <Favorable A:ILE262>
3

> <Favorable A:ILE263>
2

> <Favorable A:SER265>
0

> <Favorable A:GLN266>
2

> <Favorable A:MET268>
0

> <Favorable A:GLY269>
0

> <Favorable A:TYR272>
0

> <Favorable A:PRO273>
0

> <Unfavorable A:ARG55>
0

> <Unfavorable A:PRO73>
0

> <Unfavorable A:PHE76>
0

> <Unfavorable A:GLU79>
0

> <Unfavorable A:ARG83>
0

> <Unfavorable A:THR86>
0

> <Unfavorable A:TRP89>
0

> <Unfavorable A:THR90>
0

> <Unfavorable A:ASN93>
0

> <Unfavorable A:TRP98>
0

> <Unfavorable A:ASN144>
0

> <Unfavorable A:SER155>
0

> <Unfavorable A:GLY158>
0

> <Unfavorable A:TYR159>
0

> <Unfavorable A:ASN162>
0

> <Unfavorable A:ASP168>
0

> <Unfavorable A:ASN171>
0

> <Unfavorable A:THR173>
0

> <Unfavorable A:ARG174>
0

> <Unfavorable A:SER183>
0

> <Unfavorable A:THR184>
0

> <Unfavorable A:PHE186>
0

> <Unfavorable A:SER244>
0

> <Unfavorable A:SER254>
0

> <Unfavorable A:GLU255>
0

> <Unfavorable A:SER265>
0

> <Unfavorable A:GLN266>
0

> <Unfavorable A:GLY269>
0

> <Charge A:ARG55>
0

> <Charge A:PHE76>
0

> <Charge A:GLU79>
0

> <Charge A:PHE82>
0

> <Charge A:ARG83>
0

> <Charge A:TRP89>
0

> <Charge A:HIS94>
0

> <Charge A:TRP98>
0

> <Charge A:TYR159>
0

> <Charge A:ARG161>
0

> <Charge A:LYS163>
0

> <Charge A:ASP168>
0

> <Charge A:PHE172>
0

> <Charge A:ARG174>
0

> <Charge A:PHE175>
0

> <Charge A:PHE188>
0

> <Charge A:PHE247>
0

> <Charge A:PHE248>
0

> <Hydrophobic A:LEU58>
0

> <Hydrophobic A:LEU61>
0

> <Hydrophobic A:ILE62>
0

> <Hydrophobic A:TRP66>
2

> <Hydrophobic A:VAL70>
1

> <Hydrophobic A:PRO73>
0

> <Hydrophobic A:ALA74>
0

> <Hydrophobic A:PHE76>
0

> <Hydrophobic A:ALA77>
0

> <Hydrophobic A:THR78>
0

> <Hydrophobic A:PHE82>
0

> <Hydrophobic A:ARG83>
0

> <Hydrophobic A:LEU85>
0

> <Hydrophobic A:TRP89>
1

> <Hydrophobic A:THR90>
0

> <Hydrophobic A:ASN93>
0

> <Hydrophobic A:HIS94>
0

> <Hydrophobic A:VAL97>
0

> <Hydrophobic A:TRP98>
0

> <Hydrophobic A:PHE140>
0

> <Hydrophobic A:LEU141>
0

> <Hydrophobic A:ILE148>
0

> <Hydrophobic A:ILE150>
0

> <Hydrophobic A:HIS151>
0

> <Hydrophobic A:ILE152>
0

> <Hydrophobic A:ALA154>
0

> <Hydrophobic A:SER155>
0

> <Hydrophobic A:ILE156>
0

> <Hydrophobic A:GLY158>
0

> <Hydrophobic A:TYR159>
0

> <Hydrophobic A:ARG160>
0

> <Hydrophobic A:ARG161>
0

> <Hydrophobic A:ASP168>
0

> <Hydrophobic A:ASN171>
0

> <Hydrophobic A:PHE172>
0

> <Hydrophobic A:ARG174>
0

> <Hydrophobic A:PHE175>
0

> <Hydrophobic A:LEU178>
0

> <Hydrophobic A:ILE179>
0

> <Hydrophobic A:VAL180>
0

> <Hydrophobic A:LEU181>
0

> <Hydrophobic A:PHE186>
0

> <Hydrophobic A:ILE187>
0

> <Hydrophobic A:PHE188>
0

> <Hydrophobic A:ILE189>
0

> <Hydrophobic A:PRO190>
0

> <Hydrophobic A:PHE191>
0

> <Hydrophobic A:TYR240>
0

> <Hydrophobic A:PHE243>
0

> <Hydrophobic A:PHE247>
0

> <Hydrophobic A:PHE248>
0

> <Hydrophobic A:VAL251>
0

> <Hydrophobic A:TRP252>
0

> <Hydrophobic A:SER254>
0

> <Hydrophobic A:LEU261>
0

> <Hydrophobic A:ILE262>
3

> <Hydrophobic A:ILE263>
2

> <Hydrophobic A:TYR272>
0

> <Hydrophobic A:PRO273>
0

> <HydrogenBond A:LYS6>
0

> <HydrogenBond A:ARG55>
0

> <HydrogenBond A:GLY64>
0

> <HydrogenBond A:SER65>
0

> <HydrogenBond A:TRP66>
0

> <HydrogenBond A:SER69>
1

> <HydrogenBond A:PRO73>
0

> <HydrogenBond A:ALA74>
0

> <HydrogenBond A:PHE76>
0

> <HydrogenBond A:ALA77>
0

> <HydrogenBond A:THR78>
0

> <HydrogenBond A:GLU79>
0

> <HydrogenBond A:PHE82>
0

> <HydrogenBond A:ARG83>
0

> <HydrogenBond A:LEU85>
0

> <HydrogenBond A:THR86>
0

> <HydrogenBond A:TRP89>
0

> <HydrogenBond A:THR90>
0

> <HydrogenBond A:ASN93>
0

> <HydrogenBond A:HIS94>
0

> <HydrogenBond A:SER96>
0

> <HydrogenBond A:TRP98>
0

> <HydrogenBond A:ASN144>
0

> <HydrogenBond A:HIS151>
0

> <HydrogenBond A:ILE152>
0

> <HydrogenBond A:ALA154>
0

> <HydrogenBond A:SER155>
0

> <HydrogenBond A:ILE156>
0

> <HydrogenBond A:GLY158>
0

> <HydrogenBond A:TYR159>
0

> <HydrogenBond A:ASN162>
0

> <HydrogenBond A:LYS163>
0

> <HydrogenBond A:SER167>
0

> <HydrogenBond A:ASP168>
0

> <HydrogenBond A:SER169>
0

> <HydrogenBond A:ASN171>
0

> <HydrogenBond A:PHE172>
0

> <HydrogenBond A:THR173>
0

> <HydrogenBond A:ARG174>
0

> <HydrogenBond A:PHE175>
0

> <HydrogenBond A:SER176>
0

> <HydrogenBond A:SER177>
0

> <HydrogenBond A:ILE179>
0

> <HydrogenBond A:VAL180>
0

> <HydrogenBond A:SER183>
0

> <HydrogenBond A:THR184>
0

> <HydrogenBond A:PHE186>
0

> <HydrogenBond A:ILE187>
0

> <HydrogenBond A:PRO190>
0

> <HydrogenBond A:TYR240>
0

> <HydrogenBond A:PHE243>
0

> <HydrogenBond A:SER244>
0

> <HydrogenBond A:PHE247>
0

> <HydrogenBond A:VAL251>
0

> <HydrogenBond A:SER254>
0

> <HydrogenBond A:GLU255>
0

> <HydrogenBond A:ARG256>
0

> <HydrogenBond A:LEU257>
0

> <HydrogenBond A:GLU258>
0

> <HydrogenBond A:GLU259>
0

> <HydrogenBond A:ILE262>
0

> <HydrogenBond A:SER265>
0

> <HydrogenBond A:GLN266>
2

> <HydrogenBond A:MET268>
0

> <HydrogenBond A:GLY269>
0

> <HydrogenBond A:PRO273>
0

> <Other A:SER69>
0

> <Other A:TRP89>
0

> <Other A:TYR159>
0

> <Other A:PHE172>
0

> <Other A:SER176>
0

> <Other A:SER265>
0

$$$$
56968444
  SciTegic09122300493D

 60 59  0  0  0  0            999 V2000
   14.8697    0.2230   -6.7617 O   0  0  0  1  0  0
   16.3389   -1.5632   -8.1505 O   0  0  0  1  0  0
   19.0772   -1.7255   -8.7612 O   0  0  0  1  0  0
   20.6246   -1.1498  -10.2780 O   0  0  0  1  0  0
   11.8673    4.3366   -5.5793 C   0  0  0  1  0  0
   12.7848    3.9703   -6.7439 C   0  0  0  1  0  0
   11.2307    5.6979   -5.8417 C   0  0  0  1  0  0
   13.4948    2.6330   -6.5543 C   0  0  0  1  0  0
   10.1727    6.0994   -4.7992 C   0  0  0  1  0  0
   14.3062    2.2911   -7.8062 C   0  0  0  1  0  0
    9.2567    7.2122   -5.3394 C   0  0  0  1  0  0
   15.1253    1.0191   -7.6143 C   0  0  0  1  0  0
   16.3078    0.8257   -8.5575 C   0  0  0  1  0  0
   17.1388   -0.3859   -8.1294 C   0  0  2  1  0  0
    8.3532    8.0057   -4.4457 C   0  0  0  1  0  0
    7.3618   10.6603   -2.4111 C   0  0  0  1  0  0
    7.2025   10.1409   -3.8374 C   0  0  0  1  0  0
    6.2652   10.0802   -1.5469 C   0  0  0  1  0  0
    8.3838    9.3401   -4.3238 C   0  0  0  1  0  0
    6.6957    9.8377   -0.1293 C   0  0  0  1  0  0
   18.3737   -0.5162   -9.0359 C   0  0  0  1  0  0
    5.8388    8.7382    0.4613 C   0  0  0  1  0  0
   20.1903   -1.9294   -9.4396 C   0  0  0  1  0  0
   20.8857   -3.2470   -9.1135 C   0  0  0  1  0  0
   15.5984   -1.4511   -7.5406 H   0  0
   12.4324    4.3624   -4.6468 H   0  0
   11.0972    3.5725   -5.4688 H   0  0
   13.5297    4.7558   -6.8826 H   0  0
   12.1969    3.9383   -7.6626 H   0  0
   12.0253    6.4362   -5.8972 H   0  0
   10.8139    5.7131   -6.8449 H   0  0
   12.7668    1.8447   -6.3554 H   0  0
   14.1475    2.6865   -5.6811 H   0  0
    9.5650    5.2392   -4.5158 H   0  0
   10.6965    6.4015   -3.8981 H   0  0
   13.6471    2.1463   -8.6623 H   0  0
   14.9843    3.1050   -8.0594 H   0  0
    8.5510    6.7252   -5.9861 H   0  0
    9.8327    7.8934   -5.9641 H   0  0
   16.9153    1.7310   -8.5450 H   0  0
   15.9281    0.6980   -9.5710 H   0  0
   17.5007   -0.2146   -7.1128 H   0  0
    7.5943    7.4438   -3.9422 H   0  0
    7.2763   11.7414   -2.3401 H   0  0
    8.3494   10.3894   -2.0346 H   0  0
    7.0033   10.9917   -4.4796 H   0  0
    6.3055    9.5312   -3.9540 H   0  0
    5.3995   10.7315   -1.5512 H   0  0
    5.9694    9.1181   -1.9654 H   0  0
    9.2146    9.8927   -4.7166 H   0  0
    6.6613   10.7468    0.4708 H   0  0
    7.7240    9.5071   -0.1615 H   0  0
   19.0423    0.3336   -8.8797 H   0  0
   18.0736   -0.5136  -10.0856 H   0  0
    5.6960    7.9123   -0.2356 H   0  0
    4.8645    9.1282    0.7553 H   0  0
    6.3399    8.3141    1.3165 H   0  0
   20.1665   -3.9442   -8.6886 H   0  0
   21.6884   -3.0835   -8.3967 H   0  0
   21.3034   -3.6779  -10.0220 H   0  0
  1 12  2  0
  2 14  1  0
  3 21  1  0
  3 23  1  0
  4 23  2  0
  5  6  1  0
  5  7  1  0
  6  8  1  0
  7  9  1  0
  8 10  1  0
  9 11  1  0
 10 12  1  0
 11 15  1  0
 12 13  1  0
 13 14  1  0
 14 21  1  0
 15 19  2  0
 16 17  1  0
 16 18  1  0
 17 19  1  0
 18 20  1  0
 20 22  1  0
 23 24  1  0
  2 25  1  0
  5 26  1  0
  5 27  1  0
  6 28  1  0
  6 29  1  0
  7 30  1  0
  7 31  1  0
  8 32  1  0
  8 33  1  0
  9 34  1  0
  9 35  1  0
 10 36  1  0
 10 37  1  0
 11 38  1  0
 11 39  1  0
 13 40  1  0
 13 41  1  0
 14 42  1  0
 15 43  1  0
 16 44  1  0
 16 45  1  0
 17 46  1  0
 17 47  1  0
 18 48  1  0
 18 49  1  0
 19 50  1  0
 20 51  1  0
 20 52  1  0
 21 53  1  0
 21 54  1  0
 22 55  1  0
 22 56  1  0
 22 57  1  0
 24 58  1  0
 24 59  1  0
 24 60  1  0
M  END
> <Name>
56968444

> <Binding Energy>
-89.9066

> <Ligand Energy>
6.2334

> <Protein Energy>
-7801.1566

> <Complex Energy>
-7884.8299

> <Complex Entropy>
-31.4834

> <Protein Entropy>
-31.4717

> <Ligand Entropy>
-20.3425

> <Entropic Energy>
20.3308

> <AbsoluteEnergy>
12.5547

> <ConfNumber>
1

> <IonizationIndex>
1

> <MOL_NUMBER>
591

> <NumberOfIonizations>
1

> <NumberOfStereoisomers>
2

> <NumberOfTautomers>
1

> <PUBCHEM_ATOM_DEF_STEREO_COUNT>
0

> <PUBCHEM_ATOM_UDEF_STEREO_COUNT>
1

> <PUBCHEM_BONDANNOTATIONS>
14  2  3

> <PUBCHEM_BOND_DEF_STEREO_COUNT>
1

> <PUBCHEM_BOND_UDEF_STEREO_COUNT>
0

> <PUBCHEM_CACTVS_COMPLEXITY>
350

> <PUBCHEM_CACTVS_HBOND_ACCEPTOR>
4

> <PUBCHEM_CACTVS_HBOND_DONOR>
1

> <PUBCHEM_CACTVS_ROTATABLE_BOND>
17

> <PUBCHEM_CACTVS_SUBSKEYS>
AAADcfB4OAAAAAAAAAAAAAAAAAAAAAAAAAAAAAAAAAAAAAAAAAAAGgAACAAACBSggAICCAAABgCIAKDSCAAAAAAgAAAICAEAAAgBEBYAAQACQAAEoAALAAOKyKCAAAAAAAAAAAAAAAAAAAAAAAAAAAAAAA==

> <PUBCHEM_CACTVS_TAUTO_COUNT>
-1

> <PUBCHEM_CACTVS_TPSA>
63.6

> <PUBCHEM_COMPONENT_COUNT>
1

> <PUBCHEM_COMPOUND_CANONICALIZED>
1

> <PUBCHEM_COMPOUND_CID>
56968444

> <PUBCHEM_COORDINATE_TYPE>
1
5
255

> <PUBCHEM_EXACT_MASS>
340.26135963

> <PUBCHEM_HEAVY_ATOM_COUNT>
24

> <PUBCHEM_ISOTOPIC_ATOM_COUNT>
0

> <PUBCHEM_IUPAC_CAS_NAME>
acetic acid [(E)-2-hydroxy-4-oxooctadec-12-enyl] ester

> <PUBCHEM_IUPAC_INCHI>
InChI=1S/C20H36O4/c1-3-4-5-6-7-8-9-10-11-12-13-14-15-19(22)16-20(23)17-24-18(2)21/h7-8,20,23H,3-6,9-17H2,1-2H3/b8-7+

> <PUBCHEM_IUPAC_INCHIKEY>
JTKQJCKMDVTZDT-BQYQJAHWSA-N

> <PUBCHEM_IUPAC_NAME>
[(E)-2-hydroxy-4-oxooctadec-12-enyl] acetate

> <PUBCHEM_IUPAC_NAME_MARKUP>
[(<I>E</I>)-2-hydroxy-4-oxooctadec-12-enyl] acetate

> <PUBCHEM_IUPAC_OPENEYE_NAME>
[(E)-2-hydroxy-4-oxo-octadec-12-enyl] acetate

> <PUBCHEM_IUPAC_SYSTEMATIC_NAME>
[(E)-2-oxidanyl-4-oxidanylidene-octadec-12-enyl] ethanoate

> <PUBCHEM_IUPAC_TRADITIONAL_NAME>
acetic acid [(E)-2-hydroxy-4-keto-octadec-12-enyl] ester

> <PUBCHEM_MOLECULAR_FORMULA>
C20H36O4

> <PUBCHEM_MOLECULAR_WEIGHT>
340.5

> <PUBCHEM_MONOISOTOPIC_WEIGHT>
340.26135963

> <PUBCHEM_OPENEYE_CAN_SMILES>
CCCCCC=CCCCCCCCC(=O)CC(COC(=O)C)O

> <PUBCHEM_OPENEYE_ISO_SMILES>
CCCCC/C=C/CCCCCCCC(=O)CC(COC(=O)C)O

> <PUBCHEM_TOTAL_CHARGE>
0

> <PUBCHEM_XLOGP3_AA>
5

> <RelativeEnergy>
0

> <StereoisomerIndex>
2

> <TautomerIndex>
1

> <POSE_NUMBER>
9

> <LibDockScore>
115.9577

> <HotSpots>
8.41,8.07,-4.86,A,38,15
5.81,9.67,0.14,A,68,20
20.61,-3.53,-8.65,A,34,24

> <-In-Situ Starting Energy>
-39363.2805

> <-In-Situ Final Energy>
21.6729638

> <In-Situ Gradient>
0.0009534988376

> <Favorable Total>
7

> <Unfavorable Total>
0

> <Charge Total>
0

> <Hydrophobic Total>
4

> <HydrogenBond Total>
3

> <Other Total>
0

> <Favorable A:LYS6>
0

> <Favorable A:ARG55>
0

> <Favorable A:LEU58>
0

> <Favorable A:LEU61>
0

> <Favorable A:ILE62>
0

> <Favorable A:GLY64>
0

> <Favorable A:SER65>
0

> <Favorable A:TRP66>
0

> <Favorable A:SER69>
0

> <Favorable A:VAL70>
0

> <Favorable A:PRO73>
0

> <Favorable A:ALA74>
0

> <Favorable A:PHE76>
0

> <Favorable A:ALA77>
0

> <Favorable A:THR78>
0

> <Favorable A:GLU79>
0

> <Favorable A:PHE82>
0

> <Favorable A:ARG83>
0

> <Favorable A:LEU85>
0

> <Favorable A:THR86>
0

> <Favorable A:TRP89>
0

> <Favorable A:THR90>
0

> <Favorable A:ASN93>
0

> <Favorable A:HIS94>
0

> <Favorable A:SER96>
0

> <Favorable A:VAL97>
1

> <Favorable A:TRP98>
1

> <Favorable A:PHE140>
0

> <Favorable A:LEU141>
0

> <Favorable A:ASN144>
0

> <Favorable A:ILE148>
0

> <Favorable A:ILE150>
0

> <Favorable A:HIS151>
0

> <Favorable A:ILE152>
0

> <Favorable A:ALA154>
0

> <Favorable A:SER155>
0

> <Favorable A:ILE156>
0

> <Favorable A:GLY158>
0

> <Favorable A:TYR159>
0

> <Favorable A:ARG160>
0

> <Favorable A:ARG161>
0

> <Favorable A:ASN162>
0

> <Favorable A:LYS163>
0

> <Favorable A:SER167>
0

> <Favorable A:ASP168>
0

> <Favorable A:SER169>
0

> <Favorable A:ASN171>
0

> <Favorable A:PHE172>
0

> <Favorable A:THR173>
0

> <Favorable A:ARG174>
0

> <Favorable A:PHE175>
0

> <Favorable A:SER176>
0

> <Favorable A:SER177>
0

> <Favorable A:LEU178>
0

> <Favorable A:ILE179>
0

> <Favorable A:VAL180>
0

> <Favorable A:LEU181>
0

> <Favorable A:SER183>
0

> <Favorable A:THR184>
0

> <Favorable A:PHE186>
0

> <Favorable A:ILE187>
1

> <Favorable A:PHE188>
0

> <Favorable A:ILE189>
0

> <Favorable A:PRO190>
1

> <Favorable A:PHE191>
0

> <Favorable A:TYR240>
0

> <Favorable A:PHE243>
0

> <Favorable A:SER244>
0

> <Favorable A:PHE247>
0

> <Favorable A:PHE248>
0

> <Favorable A:VAL251>
0

> <Favorable A:TRP252>
0

> <Favorable A:SER254>
1

> <Favorable A:GLU255>
0

> <Favorable A:ARG256>
0

> <Favorable A:LEU257>
0

> <Favorable A:GLU258>
0

> <Favorable A:GLU259>
0

> <Favorable A:LEU261>
0

> <Favorable A:ILE262>
1

> <Favorable A:ILE263>
0

> <Favorable A:SER265>
1

> <Favorable A:GLN266>
0

> <Favorable A:MET268>
0

> <Favorable A:GLY269>
0

> <Favorable A:TYR272>
0

> <Favorable A:PRO273>
0

> <Unfavorable A:ARG55>
0

> <Unfavorable A:PRO73>
0

> <Unfavorable A:PHE76>
0

> <Unfavorable A:GLU79>
0

> <Unfavorable A:ARG83>
0

> <Unfavorable A:THR86>
0

> <Unfavorable A:TRP89>
0

> <Unfavorable A:THR90>
0

> <Unfavorable A:ASN93>
0

> <Unfavorable A:TRP98>
0

> <Unfavorable A:ASN144>
0

> <Unfavorable A:SER155>
0

> <Unfavorable A:GLY158>
0

> <Unfavorable A:TYR159>
0

> <Unfavorable A:ASN162>
0

> <Unfavorable A:ASP168>
0

> <Unfavorable A:ASN171>
0

> <Unfavorable A:THR173>
0

> <Unfavorable A:ARG174>
0

> <Unfavorable A:SER183>
0

> <Unfavorable A:THR184>
0

> <Unfavorable A:PHE186>
0

> <Unfavorable A:SER244>
0

> <Unfavorable A:SER254>
0

> <Unfavorable A:GLU255>
0

> <Unfavorable A:SER265>
0

> <Unfavorable A:GLN266>
0

> <Unfavorable A:GLY269>
0

> <Charge A:ARG55>
0

> <Charge A:PHE76>
0

> <Charge A:GLU79>
0

> <Charge A:PHE82>
0

> <Charge A:ARG83>
0

> <Charge A:TRP89>
0

> <Charge A:HIS94>
0

> <Charge A:TRP98>
0

> <Charge A:TYR159>
0

> <Charge A:ARG161>
0

> <Charge A:LYS163>
0

> <Charge A:ASP168>
0

> <Charge A:PHE172>
0

> <Charge A:ARG174>
0

> <Charge A:PHE175>
0

> <Charge A:PHE188>
0

> <Charge A:PHE247>
0

> <Charge A:PHE248>
0

> <Hydrophobic A:LEU58>
0

> <Hydrophobic A:LEU61>
0

> <Hydrophobic A:ILE62>
0

> <Hydrophobic A:TRP66>
0

> <Hydrophobic A:VAL70>
0

> <Hydrophobic A:PRO73>
0

> <Hydrophobic A:ALA74>
0

> <Hydrophobic A:PHE76>
0

> <Hydrophobic A:ALA77>
0

> <Hydrophobic A:THR78>
0

> <Hydrophobic A:PHE82>
0

> <Hydrophobic A:ARG83>
0

> <Hydrophobic A:LEU85>
0

> <Hydrophobic A:TRP89>
0

> <Hydrophobic A:THR90>
0

> <Hydrophobic A:ASN93>
0

> <Hydrophobic A:HIS94>
0

> <Hydrophobic A:VAL97>
1

> <Hydrophobic A:TRP98>
1

> <Hydrophobic A:PHE140>
0

> <Hydrophobic A:LEU141>
0

> <Hydrophobic A:ILE148>
0

> <Hydrophobic A:ILE150>
0

> <Hydrophobic A:HIS151>
0

> <Hydrophobic A:ILE152>
0

> <Hydrophobic A:ALA154>
0

> <Hydrophobic A:SER155>
0

> <Hydrophobic A:ILE156>
0

> <Hydrophobic A:GLY158>
0

> <Hydrophobic A:TYR159>
0

> <Hydrophobic A:ARG160>
0

> <Hydrophobic A:ARG161>
0

> <Hydrophobic A:ASP168>
0

> <Hydrophobic A:ASN171>
0

> <Hydrophobic A:PHE172>
0

> <Hydrophobic A:ARG174>
0

> <Hydrophobic A:PHE175>
0

> <Hydrophobic A:LEU178>
0

> <Hydrophobic A:ILE179>
0

> <Hydrophobic A:VAL180>
0

> <Hydrophobic A:LEU181>
0

> <Hydrophobic A:PHE186>
0

> <Hydrophobic A:ILE187>
1

> <Hydrophobic A:PHE188>
0

> <Hydrophobic A:ILE189>
0

> <Hydrophobic A:PRO190>
1

> <Hydrophobic A:PHE191>
0

> <Hydrophobic A:TYR240>
0

> <Hydrophobic A:PHE243>
0

> <Hydrophobic A:PHE247>
0

> <Hydrophobic A:PHE248>
0

> <Hydrophobic A:VAL251>
0

> <Hydrophobic A:TRP252>
0

> <Hydrophobic A:SER254>
0

> <Hydrophobic A:LEU261>
0

> <Hydrophobic A:ILE262>
0

> <Hydrophobic A:ILE263>
0

> <Hydrophobic A:TYR272>
0

> <Hydrophobic A:PRO273>
0

> <HydrogenBond A:LYS6>
0

> <HydrogenBond A:ARG55>
0

> <HydrogenBond A:GLY64>
0

> <HydrogenBond A:SER65>
0

> <HydrogenBond A:TRP66>
0

> <HydrogenBond A:SER69>
0

> <HydrogenBond A:PRO73>
0

> <HydrogenBond A:ALA74>
0

> <HydrogenBond A:PHE76>
0

> <HydrogenBond A:ALA77>
0

> <HydrogenBond A:THR78>
0

> <HydrogenBond A:GLU79>
0

> <HydrogenBond A:PHE82>
0

> <HydrogenBond A:ARG83>
0

> <HydrogenBond A:LEU85>
0

> <HydrogenBond A:THR86>
0

> <HydrogenBond A:TRP89>
0

> <HydrogenBond A:THR90>
0

> <HydrogenBond A:ASN93>
0

> <HydrogenBond A:HIS94>
0

> <HydrogenBond A:SER96>
0

> <HydrogenBond A:TRP98>
0

> <HydrogenBond A:ASN144>
0

> <HydrogenBond A:HIS151>
0

> <HydrogenBond A:ILE152>
0

> <HydrogenBond A:ALA154>
0

> <HydrogenBond A:SER155>
0

> <HydrogenBond A:ILE156>
0

> <HydrogenBond A:GLY158>
0

> <HydrogenBond A:TYR159>
0

> <HydrogenBond A:ASN162>
0

> <HydrogenBond A:LYS163>
0

> <HydrogenBond A:SER167>
0

> <HydrogenBond A:ASP168>
0

> <HydrogenBond A:SER169>
0

> <HydrogenBond A:ASN171>
0

> <HydrogenBond A:PHE172>
0

> <HydrogenBond A:THR173>
0

> <HydrogenBond A:ARG174>
0

> <HydrogenBond A:PHE175>
0

> <HydrogenBond A:SER176>
0

> <HydrogenBond A:SER177>
0

> <HydrogenBond A:ILE179>
0

> <HydrogenBond A:VAL180>
0

> <HydrogenBond A:SER183>
0

> <HydrogenBond A:THR184>
0

> <HydrogenBond A:PHE186>
0

> <HydrogenBond A:ILE187>
0

> <HydrogenBond A:PRO190>
0

> <HydrogenBond A:TYR240>
0

> <HydrogenBond A:PHE243>
0

> <HydrogenBond A:SER244>
0

> <HydrogenBond A:PHE247>
0

> <HydrogenBond A:VAL251>
0

> <HydrogenBond A:SER254>
1

> <HydrogenBond A:GLU255>
0

> <HydrogenBond A:ARG256>
0

> <HydrogenBond A:LEU257>
0

> <HydrogenBond A:GLU258>
0

> <HydrogenBond A:GLU259>
0

> <HydrogenBond A:ILE262>
1

> <HydrogenBond A:SER265>
1

> <HydrogenBond A:GLN266>
0

> <HydrogenBond A:MET268>
0

> <HydrogenBond A:GLY269>
0

> <HydrogenBond A:PRO273>
0

> <Other A:SER69>
0

> <Other A:TRP89>
0

> <Other A:TYR159>
0

> <Other A:PHE172>
0

> <Other A:SER176>
0

> <Other A:SER265>
0

$$$$
58473846
  SciTegic09122300493D

 55 55  0  0  0  0            999 V2000
   13.9025    5.5647  -10.3719 O   0  0  0  1  0  0
   12.3317    5.9685  -12.1382 O   0  5  0  1  0  0
   10.5026    2.3017   -9.9407 O   0  0  0  1  0  0
   10.9382    6.5956   -9.0373 O   0  0  0  1  0  0
    9.1566    4.9132  -12.7563 O   0  0  0  1  0  0
   12.4618    3.6557   -9.5378 C   0  0  2  1  0  0
   12.6209    5.1517   -9.9631 C   0  0  2  1  0  0
   11.8740    5.2117  -11.2771 C   0  0  0  1  0  0
   11.1533    3.2563  -10.2367 C   0  0  0  1  0  0
   10.8595    4.1692  -11.3298 C   0  0  0  1  0  0
   12.4401    3.3427   -8.0257 C   0  0  0  1  0  0
   12.0411    6.1506   -8.9396 C   0  0  0  1  0  0
    9.7663    3.9953  -12.3041 C   0  0  0  1  0  0
    9.4172    2.5614  -12.7560 C   0  0  1  1  0  0
   12.8710    6.4631   -7.6898 C   0  0  0  1  0  0
   12.1273    1.9221   -7.6319 C   0  0  0  1  0  0
    7.8910    2.3474  -12.8179 C   0  0  0  1  0  0
   10.1384    2.3345  -14.0746 C   0  0  0  1  0  0
   12.9014    1.0021   -7.0306 C   0  0  0  1  0  0
   11.9942    6.2092   -6.4910 C   0  0  0  1  0  0
    7.2347    2.3970  -14.1887 C   0  0  0  1  0  0
   12.2662   -0.2472   -6.4750 C   0  0  0  1  0  0
   14.3364    1.1863   -6.6026 C   0  0  0  1  0  0
   12.2226    5.4065   -5.4341 C   0  0  0  1  0  0
   13.5295    4.7299   -5.1064 C   0  0  0  1  0  0
   11.2221    5.3107   -4.3156 C   0  0  0  1  0  0
   13.6713    5.9967  -11.2245 H   0  0
   13.2544    3.0728  -10.0075 H   0  0
   13.3870    3.6523   -7.5926 H   0  0
   11.6596    3.9426   -7.5677 H   0  0
    9.8158    1.8407  -12.0480 H   0  0
   13.1623    7.5102   -7.7169 H   0  0
   13.7781    5.8616   -7.6829 H   0  0
   11.1002    1.6588   -7.7986 H   0  0
    7.6402    1.4081  -12.3236 H   0  0
    7.3988    3.1465  -12.2751 H   0  0
   11.2178    2.4580  -13.9717 H   0  0
    9.7854    3.0666  -14.8005 H   0  0
    9.9581    1.3338  -14.4579 H   0  0
   11.0548    6.7310   -6.5420 H   0  0
    7.7853    1.8621  -14.9612 H   0  0
    7.1314    3.4415  -14.4629 H   0  0
    6.2322    1.9733  -14.1519 H   0  0
   12.4735   -1.0897   -7.1301 H   0  0
   11.1827   -0.1475   -6.4081 H   0  0
   12.6386   -0.4746   -5.4766 H   0  0
   14.6514    2.2262   -6.6593 H   0  0
   14.9955    0.6021   -7.2444 H   0  0
   14.4852    0.8520   -5.5763 H   0  0
   14.3326    5.0788   -5.7491 H   0  0
   13.4390    3.6509   -5.2274 H   0  0
   13.8300    4.9307   -4.0775 H   0  0
   10.6849    4.3664   -4.3759 H   0  0
   10.4847    6.1104   -4.3755 H   0  0
   11.7204    5.3711   -3.3493 H   0  0
  1  7  1  0
  2  8  1  0
  3  9  2  0
  4 12  2  0
  5 13  2  0
  6  7  1  0
  6  9  1  0
  6 11  1  0
  7  8  1  0
  7 12  1  0
  8 10  2  0
  9 10  1  0
 10 13  1  0
 11 16  1  0
 12 15  1  0
 13 14  1  0
 14 17  1  0
 14 18  1  0
 15 20  1  0
 16 19  2  0
 17 21  1  0
 19 22  1  0
 19 23  1  0
 20 24  2  0
 24 25  1  0
 24 26  1  0
  1 27  1  0
  6 28  1  0
 11 29  1  0
 11 30  1  0
 14 31  1  0
 15 32  1  0
 15 33  1  0
 16 34  1  0
 17 35  1  0
 17 36  1  0
 18 37  1  0
 18 38  1  0
 18 39  1  0
 20 40  1  0
 21 41  1  0
 21 42  1  0
 21 43  1  0
 22 44  1  0
 22 45  1  0
 22 46  1  0
 23 47  1  0
 23 48  1  0
 23 49  1  0
 25 50  1  0
 25 51  1  0
 25 52  1  0
 26 53  1  0
 26 54  1  0
 26 55  1  0
M  CHG  1   2  -1
M  END
> <Name>
58473846

> <Binding Energy>
-48.2511

> <Ligand Energy>
94.1303

> <Protein Energy>
-7801.1566

> <Complex Energy>
-7755.2775

> <Complex Entropy>
-31.4838

> <Protein Entropy>
-31.4717

> <Ligand Entropy>
-19.9051

> <Entropic Energy>
19.893

> <AbsoluteEnergy>
54.4718

> <ConfNumber>
148

> <Ionization pH>
7.5

> <IonizationIndex>
1

> <MOL_NUMBER>
594

> <NumberOfIonizations>
1

> <NumberOfStereoisomers>
1

> <NumberOfTautomers>
1

> <PUBCHEM_ATOM_DEF_STEREO_COUNT>
2

> <PUBCHEM_ATOM_UDEF_STEREO_COUNT>
1

> <PUBCHEM_BOND_DEF_STEREO_COUNT>
0

> <PUBCHEM_BOND_UDEF_STEREO_COUNT>
0

> <PUBCHEM_CACTVS_TAUTO_COUNT>
36

> <PUBCHEM_COMPONENT_COUNT>
1

> <PUBCHEM_COMPOUND_CID>
58473846

> <PUBCHEM_CONFORMER_DIVERSEORDER>
1
91
10
127
93
87
184
140
22
155
86
136
57
161
166
82
141
78
153
121
12
167
75
126
119
88
151
27
149
145
130
131
132
124
35
81
74
62
66
50
108
123
160
64
173
159
59
177
187
188
179
137
174
129
80
92
79
143
156
69
125
181
146
115
144
84
186
16
71
36
101
18
30
100
77
38
157
102
175
73
139
138
44
61
90
112
154
97
162
134
47
116
164
106
171
45
83
183
182
105
63
68
85
120
169
117
39
43
33
56
46
15
118
17
176
8
180
110
25
147
70
178
51
28
76
128
34
11
170
53
122
135
133
113
172
41
168
114
32
26
7
49
2
107
142
185
163
54
65
148
55
52
152
31
98
96
19
29
13
89
72
3
67
150
9
109
14
165
24
37
48
95
99
20
21
6
58
42
158
5
104
40
4
60
111
23
103
94

> <PUBCHEM_CONFORMER_ID>
037C3D7600000001

> <PUBCHEM_CONFORMER_RMSD>
1

> <PUBCHEM_COORDINATE_TYPE>
2
5
10

> <PUBCHEM_EFFECTIVE_ROTOR_COUNT>
8.4

> <PUBCHEM_FEATURE_SELFOVERLAP>
55.824

> <PUBCHEM_HEAVY_ATOM_COUNT>
26

> <PUBCHEM_ISOTOPIC_ATOM_COUNT>
0

> <PUBCHEM_MMFF94_ENERGY>
42.1438

> <PUBCHEM_MMFF94_PARTIAL_CHARGES>
27
1 -0.68
10 0.03
11 0.14
12 0.45
13 0.49
14 0.06
15 0.2
16 -0.29
19 -0.28
2 -0.53
20 -0.29
22 0.14
23 0.14
24 -0.28
25 0.14
26 0.14
3 -0.57
31 0.4
34 0.15
37 0.45
4 -0.57
41 0.15
5 -0.57
6 0.06
7 0.48
8 -0.06
9 0.49

> <PUBCHEM_PHARMACOPHORE_FEATURES>
11
1 1 acceptor
1 1 donor
1 18 hydrophobe
1 2 donor
1 21 hydrophobe
1 3 acceptor
1 4 acceptor
1 5 acceptor
3 19 22 23 hydrophobe
3 24 25 26 hydrophobe
5 6 7 8 9 10 rings

> <PUBCHEM_SHAPE_FINGERPRINT>
105312 117 18409453574228825909
10764073 3 13675974627366167474
11488393 25 17612582324688084903
11796584 16 13614244715745967189
12293681 160 17846212190212864000
12788726 201 18044372970456558219
13149001 5 17988920127948739640
13540713 4 17844525716144546232
14251757 5 18192996143711751503
15163728 17 18192168018003172693
15664445 248 16754103956441916797
15775530 1 17699837720479691569
1813 80 17548988105314719202
20602899 9 18272657822337547403
21033650 10 17201945647252933768
21641784 216 17831314061027622119
22393880 68 17845354584476778645
22907989 373 18125737917401181325
23419403 2 13462608923980747387
23559900 14 17835787609296199873
266924 78 17765465078850817545
3057174 1 18340206272199033767
340366 18 18261683588718385854
3472631 163 17240762818803036733
3759504 43 18410572873082235599
4058900 60 18193846937988263969
4409770 3 18339924917523793075
57527585 21 16811259753809576020
58779409 8 18412262873840805975
633830 44 17095528435205816424
7164475 11 18049443935553334734

> <PUBCHEM_SHAPE_MULTIPOLES>
505.72
9.16
5.52
1.72
1.8
9.53
0.03
-9.11
4.58
-6.46
1.83
0.41
-1.12
0.32

> <PUBCHEM_SHAPE_SELFOVERLAP>
1030.711

> <PUBCHEM_SHAPE_VOLUME>
293.4

> <RelativeEnergy>
9.3647

> <StereoisomerIndex>
1

> <TautomerIndex>
1

> <POSE_NUMBER>
3

> <LibDockScore>
108.9218

> <HotSpots>
9.21,3.67,-12.86,A,26,17
9.01,2.67,-14.05,A,21,21
13.41,5.07,-3.25,A,44,26

> <-In-Situ Starting Energy>
-404.591801

> <-In-Situ Final Energy>
19.7016964

> <In-Situ Gradient>
0.122185842

> <Favorable Total>
15

> <Unfavorable Total>
0

> <Charge Total>
1

> <Hydrophobic Total>
11

> <HydrogenBond Total>
3

> <Other Total>
0

> <Favorable A:LYS6>
0

> <Favorable A:ARG55>
0

> <Favorable A:LEU58>
0

> <Favorable A:LEU61>
1

> <Favorable A:ILE62>
0

> <Favorable A:GLY64>
0

> <Favorable A:SER65>
0

> <Favorable A:TRP66>
0

> <Favorable A:SER69>
0

> <Favorable A:VAL70>
0

> <Favorable A:PRO73>
0

> <Favorable A:ALA74>
0

> <Favorable A:PHE76>
1

> <Favorable A:ALA77>
0

> <Favorable A:THR78>
0

> <Favorable A:GLU79>
0

> <Favorable A:PHE82>
1

> <Favorable A:ARG83>
0

> <Favorable A:LEU85>
2

> <Favorable A:THR86>
2

> <Favorable A:TRP89>
3

> <Favorable A:THR90>
0

> <Favorable A:ASN93>
0

> <Favorable A:HIS94>
0

> <Favorable A:SER96>
0

> <Favorable A:VAL97>
0

> <Favorable A:TRP98>
0

> <Favorable A:PHE140>
0

> <Favorable A:LEU141>
0

> <Favorable A:ASN144>
0

> <Favorable A:ILE148>
0

> <Favorable A:ILE150>
0

> <Favorable A:HIS151>
0

> <Favorable A:ILE152>
0

> <Favorable A:ALA154>
0

> <Favorable A:SER155>
0

> <Favorable A:ILE156>
0

> <Favorable A:GLY158>
0

> <Favorable A:TYR159>
0

> <Favorable A:ARG160>
0

> <Favorable A:ARG161>
0

> <Favorable A:ASN162>
0

> <Favorable A:LYS163>
0

> <Favorable A:SER167>
0

> <Favorable A:ASP168>
0

> <Favorable A:SER169>
0

> <Favorable A:ASN171>
0

> <Favorable A:PHE172>
0

> <Favorable A:THR173>
0

> <Favorable A:ARG174>
0

> <Favorable A:PHE175>
0

> <Favorable A:SER176>
0

> <Favorable A:SER177>
0

> <Favorable A:LEU178>
0

> <Favorable A:ILE179>
0

> <Favorable A:VAL180>
1

> <Favorable A:LEU181>
0

> <Favorable A:SER183>
0

> <Favorable A:THR184>
0

> <Favorable A:PHE186>
0

> <Favorable A:ILE187>
1

> <Favorable A:PHE188>
0

> <Favorable A:ILE189>
0

> <Favorable A:PRO190>
0

> <Favorable A:PHE191>
0

> <Favorable A:TYR240>
0

> <Favorable A:PHE243>
0

> <Favorable A:SER244>
0

> <Favorable A:PHE247>
1

> <Favorable A:PHE248>
0

> <Favorable A:VAL251>
2

> <Favorable A:TRP252>
0

> <Favorable A:SER254>
0

> <Favorable A:GLU255>
0

> <Favorable A:ARG256>
0

> <Favorable A:LEU257>
0

> <Favorable A:GLU258>
0

> <Favorable A:GLU259>
0

> <Favorable A:LEU261>
0

> <Favorable A:ILE262>
0

> <Favorable A:ILE263>
0

> <Favorable A:SER265>
0

> <Favorable A:GLN266>
0

> <Favorable A:MET268>
0

> <Favorable A:GLY269>
0

> <Favorable A:TYR272>
0

> <Favorable A:PRO273>
0

> <Unfavorable A:ARG55>
0

> <Unfavorable A:PRO73>
0

> <Unfavorable A:PHE76>
0

> <Unfavorable A:GLU79>
0

> <Unfavorable A:ARG83>
0

> <Unfavorable A:THR86>
0

> <Unfavorable A:TRP89>
0

> <Unfavorable A:THR90>
0

> <Unfavorable A:ASN93>
0

> <Unfavorable A:TRP98>
0

> <Unfavorable A:ASN144>
0

> <Unfavorable A:SER155>
0

> <Unfavorable A:GLY158>
0

> <Unfavorable A:TYR159>
0

> <Unfavorable A:ASN162>
0

> <Unfavorable A:ASP168>
0

> <Unfavorable A:ASN171>
0

> <Unfavorable A:THR173>
0

> <Unfavorable A:ARG174>
0

> <Unfavorable A:SER183>
0

> <Unfavorable A:THR184>
0

> <Unfavorable A:PHE186>
0

> <Unfavorable A:SER244>
0

> <Unfavorable A:SER254>
0

> <Unfavorable A:GLU255>
0

> <Unfavorable A:SER265>
0

> <Unfavorable A:GLN266>
0

> <Unfavorable A:GLY269>
0

> <Charge A:ARG55>
0

> <Charge A:PHE76>
0

> <Charge A:GLU79>
0

> <Charge A:PHE82>
1

> <Charge A:ARG83>
0

> <Charge A:TRP89>
0

> <Charge A:HIS94>
0

> <Charge A:TRP98>
0

> <Charge A:TYR159>
0

> <Charge A:ARG161>
0

> <Charge A:LYS163>
0

> <Charge A:ASP168>
0

> <Charge A:PHE172>
0

> <Charge A:ARG174>
0

> <Charge A:PHE175>
0

> <Charge A:PHE188>
0

> <Charge A:PHE247>
0

> <Charge A:PHE248>
0

> <Hydrophobic A:LEU58>
0

> <Hydrophobic A:LEU61>
1

> <Hydrophobic A:ILE62>
0

> <Hydrophobic A:TRP66>
0

> <Hydrophobic A:VAL70>
0

> <Hydrophobic A:PRO73>
0

> <Hydrophobic A:ALA74>
0

> <Hydrophobic A:PHE76>
1

> <Hydrophobic A:ALA77>
0

> <Hydrophobic A:THR78>
0

> <Hydrophobic A:PHE82>
0

> <Hydrophobic A:ARG83>
0

> <Hydrophobic A:LEU85>
2

> <Hydrophobic A:TRP89>
2

> <Hydrophobic A:THR90>
0

> <Hydrophobic A:ASN93>
0

> <Hydrophobic A:HIS94>
0

> <Hydrophobic A:VAL97>
0

> <Hydrophobic A:TRP98>
0

> <Hydrophobic A:PHE140>
0

> <Hydrophobic A:LEU141>
0

> <Hydrophobic A:ILE148>
0

> <Hydrophobic A:ILE150>
0

> <Hydrophobic A:HIS151>
0

> <Hydrophobic A:ILE152>
0

> <Hydrophobic A:ALA154>
0

> <Hydrophobic A:SER155>
0

> <Hydrophobic A:ILE156>
0

> <Hydrophobic A:GLY158>
0

> <Hydrophobic A:TYR159>
0

> <Hydrophobic A:ARG160>
0

> <Hydrophobic A:ARG161>
0

> <Hydrophobic A:ASP168>
0

> <Hydrophobic A:ASN171>
0

> <Hydrophobic A:PHE172>
0

> <Hydrophobic A:ARG174>
0

> <Hydrophobic A:PHE175>
0

> <Hydrophobic A:LEU178>
0

> <Hydrophobic A:ILE179>
0

> <Hydrophobic A:VAL180>
1

> <Hydrophobic A:LEU181>
0

> <Hydrophobic A:PHE186>
0

> <Hydrophobic A:ILE187>
1

> <Hydrophobic A:PHE188>
0

> <Hydrophobic A:ILE189>
0

> <Hydrophobic A:PRO190>
0

> <Hydrophobic A:PHE191>
0

> <Hydrophobic A:TYR240>
0

> <Hydrophobic A:PHE243>
0

> <Hydrophobic A:PHE247>
1

> <Hydrophobic A:PHE248>
0

> <Hydrophobic A:VAL251>
2

> <Hydrophobic A:TRP252>
0

> <Hydrophobic A:SER254>
0

> <Hydrophobic A:LEU261>
0

> <Hydrophobic A:ILE262>
0

> <Hydrophobic A:ILE263>
0

> <Hydrophobic A:TYR272>
0

> <Hydrophobic A:PRO273>
0

> <HydrogenBond A:LYS6>
0

> <HydrogenBond A:ARG55>
0

> <HydrogenBond A:GLY64>
0

> <HydrogenBond A:SER65>
0

> <HydrogenBond A:TRP66>
0

> <HydrogenBond A:SER69>
0

> <HydrogenBond A:PRO73>
0

> <HydrogenBond A:ALA74>
0

> <HydrogenBond A:PHE76>
0

> <HydrogenBond A:ALA77>
0

> <HydrogenBond A:THR78>
0

> <HydrogenBond A:GLU79>
0

> <HydrogenBond A:PHE82>
0

> <HydrogenBond A:ARG83>
0

> <HydrogenBond A:LEU85>
0

> <HydrogenBond A:THR86>
2

> <HydrogenBond A:TRP89>
1

> <HydrogenBond A:THR90>
0

> <HydrogenBond A:ASN93>
0

> <HydrogenBond A:HIS94>
0

> <HydrogenBond A:SER96>
0

> <HydrogenBond A:TRP98>
0

> <HydrogenBond A:ASN144>
0

> <HydrogenBond A:HIS151>
0

> <HydrogenBond A:ILE152>
0

> <HydrogenBond A:ALA154>
0

> <HydrogenBond A:SER155>
0

> <HydrogenBond A:ILE156>
0

> <HydrogenBond A:GLY158>
0

> <HydrogenBond A:TYR159>
0

> <HydrogenBond A:ASN162>
0

> <HydrogenBond A:LYS163>
0

> <HydrogenBond A:SER167>
0

> <HydrogenBond A:ASP168>
0

> <HydrogenBond A:SER169>
0

> <HydrogenBond A:ASN171>
0

> <HydrogenBond A:PHE172>
0

> <HydrogenBond A:THR173>
0

> <HydrogenBond A:ARG174>
0

> <HydrogenBond A:PHE175>
0

> <HydrogenBond A:SER176>
0

> <HydrogenBond A:SER177>
0

> <HydrogenBond A:ILE179>
0

> <HydrogenBond A:VAL180>
0

> <HydrogenBond A:SER183>
0

> <HydrogenBond A:THR184>
0

> <HydrogenBond A:PHE186>
0

> <HydrogenBond A:ILE187>
0

> <HydrogenBond A:PRO190>
0

> <HydrogenBond A:TYR240>
0

> <HydrogenBond A:PHE243>
0

> <HydrogenBond A:SER244>
0

> <HydrogenBond A:PHE247>
0

> <HydrogenBond A:VAL251>
0

> <HydrogenBond A:SER254>
0

> <HydrogenBond A:GLU255>
0

> <HydrogenBond A:ARG256>
0

> <HydrogenBond A:LEU257>
0

> <HydrogenBond A:GLU258>
0

> <HydrogenBond A:GLU259>
0

> <HydrogenBond A:ILE262>
0

> <HydrogenBond A:SER265>
0

> <HydrogenBond A:GLN266>
0

> <HydrogenBond A:MET268>
0

> <HydrogenBond A:GLY269>
0

> <HydrogenBond A:PRO273>
0

> <Other A:SER69>
0

> <Other A:TRP89>
0

> <Other A:TYR159>
0

> <Other A:PHE172>
0

> <Other A:SER176>
0

> <Other A:SER265>
0

$$$$
67117575
  SciTegic09122300493D

 25 26  0  0  0  0            999 V2000
    8.9480    2.2476    2.7892 O   0  0  0  1  0  0
    8.1222   -0.2911    1.3519 N   0  0  0  1  0  0
    7.1542    3.3959    1.7135 C   0  0  2  1  0  0
    6.0066    2.7969    0.9106 C   0  0  0  1  0  0
    6.4255    1.4023    0.6250 C   0  0  0  1  0  0
    7.5166    1.0411    1.3064 C   0  0  0  1  0  0
    8.0256    2.1981    2.0379 C   0  0  0  1  0  0
    6.7606    4.1836    2.9659 C   0  0  0  1  0  0
    7.9919   -1.1834    0.2174 C   0  0  0  1  0  0
    5.6330    0.6998   -0.3732 C   0  0  0  1  0  0
    6.5737   -1.6400    0.0402 C   0  0  0  1  0  0
    5.5906   -0.6255   -0.4706 C   0  0  0  1  0  0
    8.7105   -0.5485    2.1220 H   0  0
    7.6962    3.9848    0.9946 H   0  0
    5.0975    2.7312    1.5057 H   0  0
    5.8334    3.3387   -0.0197 H   0  0
    6.0727    3.6250    3.5907 H   0  0
    6.2656    5.1080    2.6961 H   0  0
    7.6297    4.4487    3.5703 H   0  0
    8.5695   -2.0850    0.4144 H   0  0
    8.3849   -0.6702   -0.6584 H   0  0
    5.0011    1.3103   -0.9921 H   0  0
    6.5304   -2.5202   -0.5898 H   0  0
    6.3091   -1.9787    1.0289 H   0  0
    4.9113   -1.0124   -1.1935 H   0  0
  1  7  2  0
  2  6  1  0
  2  9  1  0
  3  4  1  0
  3  7  1  0
  3  8  1  0
  4  5  1  0
  5  6  2  0
  5 10  1  0
  6  7  1  0
  9 11  1  0
 10 12  2  0
 11 12  1  0
  2 13  1  0
  3 14  1  0
  4 15  1  0
  4 16  1  0
  8 17  1  0
  8 18  1  0
  8 19  1  0
  9 20  1  0
  9 21  1  0
 10 22  1  0
 11 23  1  0
 11 24  1  0
 12 25  1  0
M  END
> <Name>
67117575

> <Binding Energy>
-4.1666

> <Ligand Energy>
47.8821

> <Protein Energy>
-7801.1566

> <Complex Energy>
-7757.4412

> <Complex Entropy>
-31.476

> <Protein Entropy>
-31.4717

> <Ligand Entropy>
-17.6392

> <Entropic Energy>
17.6349

> <AbsoluteEnergy>
19.5962

> <ConfNumber>
2

> <Ionization pH>
7.5

> <IonizationIndex>
1

> <MOL_NUMBER>
599

> <NumberOfIonizations>
1

> <NumberOfStereoisomers>
1

> <NumberOfTautomers>
1

> <PUBCHEM_ATOM_DEF_STEREO_COUNT>
0

> <PUBCHEM_ATOM_UDEF_STEREO_COUNT>
1

> <PUBCHEM_BOND_DEF_STEREO_COUNT>
0

> <PUBCHEM_BOND_UDEF_STEREO_COUNT>
0

> <PUBCHEM_CACTVS_TAUTO_COUNT>
28

> <PUBCHEM_COMPONENT_COUNT>
1

> <PUBCHEM_COMPOUND_CID>
67117575

> <PUBCHEM_CONFORMER_DIVERSEORDER>
1
2

> <PUBCHEM_CONFORMER_ID>
400220700000001

> <PUBCHEM_CONFORMER_RMSD>
0.4

> <PUBCHEM_COORDINATE_TYPE>
2
5
10

> <PUBCHEM_EFFECTIVE_ROTOR_COUNT>
1

> <PUBCHEM_FEATURE_SELFOVERLAP>
25.397

> <PUBCHEM_HEAVY_ATOM_COUNT>
12

> <PUBCHEM_ISOTOPIC_ATOM_COUNT>
0

> <PUBCHEM_MMFF94_ENERGY>
20.3876

> <PUBCHEM_MMFF94_PARTIAL_CHARGES>
14
1 -0.57
10 -0.15
11 0.14
12 -0.29
19 0.4
2 -0.87
22 0.15
25 0.15
3 0.06
4 0.14
5 -0.14
6 0.11
7 0.49
9 0.37

> <PUBCHEM_PHARMACOPHORE_FEATURES>
5
1 1 acceptor
1 2 cation
1 2 donor
5 3 4 5 6 7 rings
7 2 5 6 9 10 11 12 rings

> <PUBCHEM_SHAPE_FINGERPRINT>
12138202 97 18187354459143868015
12382932 28 18412823616302161832
12524768 44 18340212881726115414
12897270 3 18411984684482207324
12932764 1 17530679900881889616
13380535 21 18338534017675136745
13380535 76 18411414012161919415
13897977 150 18339640147916451441
14325111 11 18410292557435536312
14911166 2 18337675204588804238
15219456 202 18409169943426276737
16945 1 18410863118081302320
17990270 104 18409734001613233146
18186145 218 18265893567011771085
19973954 147 18411426119737829008
20201158 50 18411698755661359926
21501502 16 18337110175902820863
2334 1 18194123138286108234
23402655 69 18341601591383524653
23463225 33 18335136501434571040
23552423 10 18188776166127494548
23559900 14 18197503914395957550
2748010 2 18338803445279157686
369184 2 18333449850180798817
5084963 1 18058444314046653241
528886 8 18411414029357424616
63268167 104 18411423903434633600
7364860 26 18272371992712722360

> <PUBCHEM_SHAPE_MULTIPOLES>
236.1
4.62
1.87
0.68
0.47
0.19
-0.02
-0.12
-0.29
-0.2
-0.02
0.06
-0.01
0.19

> <PUBCHEM_SHAPE_SELFOVERLAP>
497.362

> <PUBCHEM_SHAPE_VOLUME>
133.6

> <RelativeEnergy>
0.0041367

> <StereoisomerIndex>
1

> <TautomerIndex>
1

> <POSE_NUMBER>
1

> <LibDockScore>
62.3646

> <HotSpots>
6.61,4.27,3.15,A,86,8
6.61,-0.93,-0.06,A,65,9
4.81,0.47,-1.05,A,56,12

> <-In-Situ Starting Energy>
-113.950851

> <-In-Situ Final Energy>
-29.7407259

> <In-Situ Gradient>
0.0009538455597

> <Favorable Total>
7

> <Unfavorable Total>
0

> <Charge Total>
0

> <Hydrophobic Total>
3

> <HydrogenBond Total>
4

> <Other Total>
0

> <Favorable A:LYS6>
0

> <Favorable A:ARG55>
0

> <Favorable A:LEU58>
0

> <Favorable A:LEU61>
0

> <Favorable A:ILE62>
0

> <Favorable A:GLY64>
0

> <Favorable A:SER65>
0

> <Favorable A:TRP66>
0

> <Favorable A:SER69>
0

> <Favorable A:VAL70>
0

> <Favorable A:PRO73>
0

> <Favorable A:ALA74>
0

> <Favorable A:PHE76>
0

> <Favorable A:ALA77>
0

> <Favorable A:THR78>
0

> <Favorable A:GLU79>
0

> <Favorable A:PHE82>
0

> <Favorable A:ARG83>
0

> <Favorable A:LEU85>
0

> <Favorable A:THR86>
0

> <Favorable A:TRP89>
0

> <Favorable A:THR90>
0

> <Favorable A:ASN93>
0

> <Favorable A:HIS94>
0

> <Favorable A:SER96>
0

> <Favorable A:VAL97>
1

> <Favorable A:TRP98>
0

> <Favorable A:PHE140>
0

> <Favorable A:LEU141>
0

> <Favorable A:ASN144>
0

> <Favorable A:ILE148>
0

> <Favorable A:ILE150>
0

> <Favorable A:HIS151>
0

> <Favorable A:ILE152>
0

> <Favorable A:ALA154>
0

> <Favorable A:SER155>
0

> <Favorable A:ILE156>
0

> <Favorable A:GLY158>
0

> <Favorable A:TYR159>
0

> <Favorable A:ARG160>
0

> <Favorable A:ARG161>
0

> <Favorable A:ASN162>
0

> <Favorable A:LYS163>
0

> <Favorable A:SER167>
0

> <Favorable A:ASP168>
0

> <Favorable A:SER169>
0

> <Favorable A:ASN171>
0

> <Favorable A:PHE172>
0

> <Favorable A:THR173>
0

> <Favorable A:ARG174>
0

> <Favorable A:PHE175>
0

> <Favorable A:SER176>
0

> <Favorable A:SER177>
0

> <Favorable A:LEU178>
0

> <Favorable A:ILE179>
0

> <Favorable A:VAL180>
0

> <Favorable A:LEU181>
0

> <Favorable A:SER183>
0

> <Favorable A:THR184>
0

> <Favorable A:PHE186>
0

> <Favorable A:ILE187>
1

> <Favorable A:PHE188>
0

> <Favorable A:ILE189>
0

> <Favorable A:PRO190>
0

> <Favorable A:PHE191>
0

> <Favorable A:TYR240>
1

> <Favorable A:PHE243>
1

> <Favorable A:SER244>
2

> <Favorable A:PHE247>
0

> <Favorable A:PHE248>
0

> <Favorable A:VAL251>
0

> <Favorable A:TRP252>
0

> <Favorable A:SER254>
0

> <Favorable A:GLU255>
0

> <Favorable A:ARG256>
0

> <Favorable A:LEU257>
0

> <Favorable A:GLU258>
0

> <Favorable A:GLU259>
0

> <Favorable A:LEU261>
0

> <Favorable A:ILE262>
0

> <Favorable A:ILE263>
0

> <Favorable A:SER265>
0

> <Favorable A:GLN266>
0

> <Favorable A:MET268>
1

> <Favorable A:GLY269>
0

> <Favorable A:TYR272>
0

> <Favorable A:PRO273>
0

> <Unfavorable A:ARG55>
0

> <Unfavorable A:PRO73>
0

> <Unfavorable A:PHE76>
0

> <Unfavorable A:GLU79>
0

> <Unfavorable A:ARG83>
0

> <Unfavorable A:THR86>
0

> <Unfavorable A:TRP89>
0

> <Unfavorable A:THR90>
0

> <Unfavorable A:ASN93>
0

> <Unfavorable A:TRP98>
0

> <Unfavorable A:ASN144>
0

> <Unfavorable A:SER155>
0

> <Unfavorable A:GLY158>
0

> <Unfavorable A:TYR159>
0

> <Unfavorable A:ASN162>
0

> <Unfavorable A:ASP168>
0

> <Unfavorable A:ASN171>
0

> <Unfavorable A:THR173>
0

> <Unfavorable A:ARG174>
0

> <Unfavorable A:SER183>
0

> <Unfavorable A:THR184>
0

> <Unfavorable A:PHE186>
0

> <Unfavorable A:SER244>
0

> <Unfavorable A:SER254>
0

> <Unfavorable A:GLU255>
0

> <Unfavorable A:SER265>
0

> <Unfavorable A:GLN266>
0

> <Unfavorable A:GLY269>
0

> <Charge A:ARG55>
0

> <Charge A:PHE76>
0

> <Charge A:GLU79>
0

> <Charge A:PHE82>
0

> <Charge A:ARG83>
0

> <Charge A:TRP89>
0

> <Charge A:HIS94>
0

> <Charge A:TRP98>
0

> <Charge A:TYR159>
0

> <Charge A:ARG161>
0

> <Charge A:LYS163>
0

> <Charge A:ASP168>
0

> <Charge A:PHE172>
0

> <Charge A:ARG174>
0

> <Charge A:PHE175>
0

> <Charge A:PHE188>
0

> <Charge A:PHE247>
0

> <Charge A:PHE248>
0

> <Hydrophobic A:LEU58>
0

> <Hydrophobic A:LEU61>
0

> <Hydrophobic A:ILE62>
0

> <Hydrophobic A:TRP66>
0

> <Hydrophobic A:VAL70>
0

> <Hydrophobic A:PRO73>
0

> <Hydrophobic A:ALA74>
0

> <Hydrophobic A:PHE76>
0

> <Hydrophobic A:ALA77>
0

> <Hydrophobic A:THR78>
0

> <Hydrophobic A:PHE82>
0

> <Hydrophobic A:ARG83>
0

> <Hydrophobic A:LEU85>
0

> <Hydrophobic A:TRP89>
0

> <Hydrophobic A:THR90>
0

> <Hydrophobic A:ASN93>
0

> <Hydrophobic A:HIS94>
0

> <Hydrophobic A:VAL97>
1

> <Hydrophobic A:TRP98>
0

> <Hydrophobic A:PHE140>
0

> <Hydrophobic A:LEU141>
0

> <Hydrophobic A:ILE148>
0

> <Hydrophobic A:ILE150>
0

> <Hydrophobic A:HIS151>
0

> <Hydrophobic A:ILE152>
0

> <Hydrophobic A:ALA154>
0

> <Hydrophobic A:SER155>
0

> <Hydrophobic A:ILE156>
0

> <Hydrophobic A:GLY158>
0

> <Hydrophobic A:TYR159>
0

> <Hydrophobic A:ARG160>
0

> <Hydrophobic A:ARG161>
0

> <Hydrophobic A:ASP168>
0

> <Hydrophobic A:ASN171>
0

> <Hydrophobic A:PHE172>
0

> <Hydrophobic A:ARG174>
0

> <Hydrophobic A:PHE175>
0

> <Hydrophobic A:LEU178>
0

> <Hydrophobic A:ILE179>
0

> <Hydrophobic A:VAL180>
0

> <Hydrophobic A:LEU181>
0

> <Hydrophobic A:PHE186>
0

> <Hydrophobic A:ILE187>
1

> <Hydrophobic A:PHE188>
0

> <Hydrophobic A:ILE189>
0

> <Hydrophobic A:PRO190>
0

> <Hydrophobic A:PHE191>
0

> <Hydrophobic A:TYR240>
1

> <Hydrophobic A:PHE243>
0

> <Hydrophobic A:PHE247>
0

> <Hydrophobic A:PHE248>
0

> <Hydrophobic A:VAL251>
0

> <Hydrophobic A:TRP252>
0

> <Hydrophobic A:SER254>
0

> <Hydrophobic A:LEU261>
0

> <Hydrophobic A:ILE262>
0

> <Hydrophobic A:ILE263>
0

> <Hydrophobic A:TYR272>
0

> <Hydrophobic A:PRO273>
0

> <HydrogenBond A:LYS6>
0

> <HydrogenBond A:ARG55>
0

> <HydrogenBond A:GLY64>
0

> <HydrogenBond A:SER65>
0

> <HydrogenBond A:TRP66>
0

> <HydrogenBond A:SER69>
0

> <HydrogenBond A:PRO73>
0

> <HydrogenBond A:ALA74>
0

> <HydrogenBond A:PHE76>
0

> <HydrogenBond A:ALA77>
0

> <HydrogenBond A:THR78>
0

> <HydrogenBond A:GLU79>
0

> <HydrogenBond A:PHE82>
0

> <HydrogenBond A:ARG83>
0

> <HydrogenBond A:LEU85>
0

> <HydrogenBond A:THR86>
0

> <HydrogenBond A:TRP89>
0

> <HydrogenBond A:THR90>
0

> <HydrogenBond A:ASN93>
0

> <HydrogenBond A:HIS94>
0

> <HydrogenBond A:SER96>
0

> <HydrogenBond A:TRP98>
0

> <HydrogenBond A:ASN144>
0

> <HydrogenBond A:HIS151>
0

> <HydrogenBond A:ILE152>
0

> <HydrogenBond A:ALA154>
0

> <HydrogenBond A:SER155>
0

> <HydrogenBond A:ILE156>
0

> <HydrogenBond A:GLY158>
0

> <HydrogenBond A:TYR159>
0

> <HydrogenBond A:ASN162>
0

> <HydrogenBond A:LYS163>
0

> <HydrogenBond A:SER167>
0

> <HydrogenBond A:ASP168>
0

> <HydrogenBond A:SER169>
0

> <HydrogenBond A:ASN171>
0

> <HydrogenBond A:PHE172>
0

> <HydrogenBond A:THR173>
0

> <HydrogenBond A:ARG174>
0

> <HydrogenBond A:PHE175>
0

> <HydrogenBond A:SER176>
0

> <HydrogenBond A:SER177>
0

> <HydrogenBond A:ILE179>
0

> <HydrogenBond A:VAL180>
0

> <HydrogenBond A:SER183>
0

> <HydrogenBond A:THR184>
0

> <HydrogenBond A:PHE186>
0

> <HydrogenBond A:ILE187>
0

> <HydrogenBond A:PRO190>
0

> <HydrogenBond A:TYR240>
0

> <HydrogenBond A:PHE243>
1

> <HydrogenBond A:SER244>
2

> <HydrogenBond A:PHE247>
0

> <HydrogenBond A:VAL251>
0

> <HydrogenBond A:SER254>
0

> <HydrogenBond A:GLU255>
0

> <HydrogenBond A:ARG256>
0

> <HydrogenBond A:LEU257>
0

> <HydrogenBond A:GLU258>
0

> <HydrogenBond A:GLU259>
0

> <HydrogenBond A:ILE262>
0

> <HydrogenBond A:SER265>
0

> <HydrogenBond A:GLN266>
0

> <HydrogenBond A:MET268>
1

> <HydrogenBond A:GLY269>
0

> <HydrogenBond A:PRO273>
0

> <Other A:SER69>
0

> <Other A:TRP89>
0

> <Other A:TYR159>
0

> <Other A:PHE172>
0

> <Other A:SER176>
0

> <Other A:SER265>
0

$$$$
71359704
  SciTegic09122300493D

 29 29  0  0  0  0            999 V2000
    3.9616    1.9860    0.1607 O   0  0  0  1  0  0
    6.3563   -0.7645    3.6829 O   0  0  0  1  0  0
    5.6810    1.2563    3.0152 N   0  0  0  1  0  0
    5.5949    0.4007    0.3483 N   0  0  0  1  0  0
    7.0138    2.7858    1.7449 C   0  0  2  1  0  0
    5.5916    2.2276    1.9413 C   0  0  1  1  0  0
    7.3937    3.7231    2.8993 C   0  0  0  1  0  0
    6.4393   -0.3415    1.2944 C   0  0  2  1  0  0
    4.9730    1.5485    0.7036 C   0  0  0  1  0  0
    7.3368    3.3581    0.3506 C   0  0  0  1  0  0
    6.1690    0.0283    2.7860 C   0  0  0  1  0  0
    8.8862    3.5388    3.2880 C   0  0  0  1  0  0
    7.9095   -0.3021    0.8813 C   0  0  0  1  0  0
    5.4176    1.4359    3.9623 H   0  0
    5.4067   -0.0060   -0.5454 H   0  0
    7.6921    1.9491    1.8506 H   0  0
    4.9104    2.9940    2.2978 H   0  0
    7.1128    4.7322    2.6592 H   0  0
    6.7179    3.6618    3.7481 H   0  0
    6.1515   -1.3792    1.1936 H   0  0
    7.0484    4.3986    0.2480 H   0  0
    6.8742    2.8029   -0.4637 H   0  0
    8.4074    3.2953    0.1626 H   0  0
    9.5623    3.6966    2.4591 H   0  0
    9.1876    2.5263    3.5135 H   0  0
    9.1766    4.1872    4.1125 H   0  0
    8.1904    0.6182    0.3721 H   0  0
    8.1292   -1.1138    0.1864 H   0  0
    8.5440   -0.4295    1.7577 H   0  0
  1  9  2  0
  2 11  2  0
  3  6  1  0
  3 11  1  0
  4  8  1  0
  4  9  1  0
  5  6  1  0
  5  7  1  0
  5 10  1  0
  6  9  1  0
  7 12  1  0
  8 11  1  0
  8 13  1  0
  3 14  1  0
  4 15  1  0
  5 16  1  0
  6 17  1  0
  7 18  1  0
  7 19  1  0
  8 20  1  0
 10 21  1  0
 10 22  1  0
 10 23  1  0
 12 24  1  0
 12 25  1  0
 12 26  1  0
 13 27  1  0
 13 28  1  0
 13 29  1  0
M  END
> <Name>
71359704

> <Binding Energy>
-26.7711

> <Ligand Energy>
4.6289

> <Protein Energy>
-7801.1566

> <Complex Energy>
-7823.2989

> <Complex Entropy>
-31.4765

> <Protein Entropy>
-31.4717

> <Ligand Entropy>
-17.9277

> <Entropic Energy>
17.9229

> <AbsoluteEnergy>
19.4848

> <ConfNumber>
20

> <IonizationIndex>
1

> <MOL_NUMBER>
601

> <NumberOfIonizations>
1

> <NumberOfStereoisomers>
1

> <NumberOfTautomers>
1

> <PUBCHEM_ATOM_DEF_STEREO_COUNT>
3

> <PUBCHEM_ATOM_UDEF_STEREO_COUNT>
0

> <PUBCHEM_BOND_DEF_STEREO_COUNT>
0

> <PUBCHEM_BOND_UDEF_STEREO_COUNT>
0

> <PUBCHEM_CACTVS_TAUTO_COUNT>
9

> <PUBCHEM_COMPONENT_COUNT>
1

> <PUBCHEM_COMPOUND_CID>
71359704

> <PUBCHEM_CONFORMER_DIVERSEORDER>
1
5
8
10
4
9
11
6
3
2
7

> <PUBCHEM_CONFORMER_ID>
0440DCD800000001

> <PUBCHEM_CONFORMER_RMSD>
0.6

> <PUBCHEM_COORDINATE_TYPE>
2
5
10

> <PUBCHEM_EFFECTIVE_ROTOR_COUNT>
2.8

> <PUBCHEM_FEATURE_SELFOVERLAP>
35.531

> <PUBCHEM_HEAVY_ATOM_COUNT>
13

> <PUBCHEM_ISOTOPIC_ATOM_COUNT>
0

> <PUBCHEM_MMFF94_ENERGY>
37.1293

> <PUBCHEM_MMFF94_PARTIAL_CHARGES>
10
1 -0.57
11 0.57
19 0.37
2 -0.57
23 0.37
3 -0.73
4 -0.73
6 0.36
8 0.36
9 0.57

> <PUBCHEM_PHARMACOPHORE_FEATURES>
7
1 1 acceptor
1 10 hydrophobe
1 12 hydrophobe
1 2 acceptor
1 3 donor
1 4 donor
6 3 4 6 8 9 11 rings

> <PUBCHEM_SHAPE_FINGERPRINT>
10465860 71 18342750636409910044
12932764 1 18334572451494670889
14128692 85 18269560592455480836
14911166 2 18412543202377578037
14993402 34 18412262813964296013
15310529 11 17385442085769856613
15775835 57 18113903749202475726
16945 1 18341889667276277153
18619055 16 18187919526199583510
20201158 50 17703517609962337078
20645476 183 18041005046113140327
20645477 70 17765423636796514887
20711983 138 17203615847895238618
20711985 344 18058177119984057288
20871999 31 18411142475771232631
22213442 358 18200036269250565812
228727 97 18188788175262372464
23402539 116 18342455890258574380
23419403 2 16116193462288577633
23463225 33 18263637360118586923
23552423 10 18119243106737598669
23559900 14 18343867706660414518
2748010 2 18194954378057057561
53812653 8 18265057937678821409
53812654 25 18337940204171142138
7364860 26 17914614114157331920
74978 22 18340200899131148511
8030462 33 18187359943627343770

> <PUBCHEM_SHAPE_MULTIPOLES>
245.83
5.46
1.78
0.97
0.58
0.25
0.02
-0.76
-1.44
-0.45
0.07
0.74
-0.18
-0.53

> <PUBCHEM_SHAPE_SELFOVERLAP>
489.092

> <PUBCHEM_SHAPE_VOLUME>
144.9

> <RelativeEnergy>
7.02263

> <StereoisomerIndex>
1

> <TautomerIndex>
1

> <POSE_NUMBER>
1

> <LibDockScore>
73.8084

> <HotSpots>
6.61,4.27,3.15,A,86,7
7.81,4.27,4.14,A,90,12
7.01,-0.53,1.54,A,78,13

> <-In-Situ Starting Energy>
-242.971954

> <-In-Situ Final Energy>
12.8375484

> <In-Situ Gradient>
0.0009453372138

> <Favorable Total>
7

> <Unfavorable Total>
0

> <Charge Total>
0

> <Hydrophobic Total>
5

> <HydrogenBond Total>
2

> <Other Total>
0

> <Favorable A:LYS6>
0

> <Favorable A:ARG55>
2

> <Favorable A:LEU58>
0

> <Favorable A:LEU61>
0

> <Favorable A:ILE62>
0

> <Favorable A:GLY64>
0

> <Favorable A:SER65>
0

> <Favorable A:TRP66>
0

> <Favorable A:SER69>
0

> <Favorable A:VAL70>
0

> <Favorable A:PRO73>
0

> <Favorable A:ALA74>
0

> <Favorable A:PHE76>
0

> <Favorable A:ALA77>
0

> <Favorable A:THR78>
0

> <Favorable A:GLU79>
0

> <Favorable A:PHE82>
0

> <Favorable A:ARG83>
0

> <Favorable A:LEU85>
0

> <Favorable A:THR86>
0

> <Favorable A:TRP89>
0

> <Favorable A:THR90>
0

> <Favorable A:ASN93>
0

> <Favorable A:HIS94>
0

> <Favorable A:SER96>
0

> <Favorable A:VAL97>
1

> <Favorable A:TRP98>
0

> <Favorable A:PHE140>
0

> <Favorable A:LEU141>
0

> <Favorable A:ASN144>
0

> <Favorable A:ILE148>
0

> <Favorable A:ILE150>
0

> <Favorable A:HIS151>
0

> <Favorable A:ILE152>
0

> <Favorable A:ALA154>
0

> <Favorable A:SER155>
0

> <Favorable A:ILE156>
0

> <Favorable A:GLY158>
0

> <Favorable A:TYR159>
0

> <Favorable A:ARG160>
0

> <Favorable A:ARG161>
0

> <Favorable A:ASN162>
0

> <Favorable A:LYS163>
0

> <Favorable A:SER167>
0

> <Favorable A:ASP168>
0

> <Favorable A:SER169>
0

> <Favorable A:ASN171>
0

> <Favorable A:PHE172>
0

> <Favorable A:THR173>
0

> <Favorable A:ARG174>
0

> <Favorable A:PHE175>
0

> <Favorable A:SER176>
0

> <Favorable A:SER177>
0

> <Favorable A:LEU178>
0

> <Favorable A:ILE179>
0

> <Favorable A:VAL180>
0

> <Favorable A:LEU181>
0

> <Favorable A:SER183>
0

> <Favorable A:THR184>
0

> <Favorable A:PHE186>
0

> <Favorable A:ILE187>
2

> <Favorable A:PHE188>
0

> <Favorable A:ILE189>
0

> <Favorable A:PRO190>
0

> <Favorable A:PHE191>
0

> <Favorable A:TYR240>
0

> <Favorable A:PHE243>
0

> <Favorable A:SER244>
0

> <Favorable A:PHE247>
1

> <Favorable A:PHE248>
1

> <Favorable A:VAL251>
0

> <Favorable A:TRP252>
0

> <Favorable A:SER254>
0

> <Favorable A:GLU255>
0

> <Favorable A:ARG256>
0

> <Favorable A:LEU257>
0

> <Favorable A:GLU258>
0

> <Favorable A:GLU259>
0

> <Favorable A:LEU261>
0

> <Favorable A:ILE262>
0

> <Favorable A:ILE263>
0

> <Favorable A:SER265>
0

> <Favorable A:GLN266>
0

> <Favorable A:MET268>
0

> <Favorable A:GLY269>
0

> <Favorable A:TYR272>
0

> <Favorable A:PRO273>
0

> <Unfavorable A:ARG55>
0

> <Unfavorable A:PRO73>
0

> <Unfavorable A:PHE76>
0

> <Unfavorable A:GLU79>
0

> <Unfavorable A:ARG83>
0

> <Unfavorable A:THR86>
0

> <Unfavorable A:TRP89>
0

> <Unfavorable A:THR90>
0

> <Unfavorable A:ASN93>
0

> <Unfavorable A:TRP98>
0

> <Unfavorable A:ASN144>
0

> <Unfavorable A:SER155>
0

> <Unfavorable A:GLY158>
0

> <Unfavorable A:TYR159>
0

> <Unfavorable A:ASN162>
0

> <Unfavorable A:ASP168>
0

> <Unfavorable A:ASN171>
0

> <Unfavorable A:THR173>
0

> <Unfavorable A:ARG174>
0

> <Unfavorable A:SER183>
0

> <Unfavorable A:THR184>
0

> <Unfavorable A:PHE186>
0

> <Unfavorable A:SER244>
0

> <Unfavorable A:SER254>
0

> <Unfavorable A:GLU255>
0

> <Unfavorable A:SER265>
0

> <Unfavorable A:GLN266>
0

> <Unfavorable A:GLY269>
0

> <Charge A:ARG55>
0

> <Charge A:PHE76>
0

> <Charge A:GLU79>
0

> <Charge A:PHE82>
0

> <Charge A:ARG83>
0

> <Charge A:TRP89>
0

> <Charge A:HIS94>
0

> <Charge A:TRP98>
0

> <Charge A:TYR159>
0

> <Charge A:ARG161>
0

> <Charge A:LYS163>
0

> <Charge A:ASP168>
0

> <Charge A:PHE172>
0

> <Charge A:ARG174>
0

> <Charge A:PHE175>
0

> <Charge A:PHE188>
0

> <Charge A:PHE247>
0

> <Charge A:PHE248>
0

> <Hydrophobic A:LEU58>
0

> <Hydrophobic A:LEU61>
0

> <Hydrophobic A:ILE62>
0

> <Hydrophobic A:TRP66>
0

> <Hydrophobic A:VAL70>
0

> <Hydrophobic A:PRO73>
0

> <Hydrophobic A:ALA74>
0

> <Hydrophobic A:PHE76>
0

> <Hydrophobic A:ALA77>
0

> <Hydrophobic A:THR78>
0

> <Hydrophobic A:PHE82>
0

> <Hydrophobic A:ARG83>
0

> <Hydrophobic A:LEU85>
0

> <Hydrophobic A:TRP89>
0

> <Hydrophobic A:THR90>
0

> <Hydrophobic A:ASN93>
0

> <Hydrophobic A:HIS94>
0

> <Hydrophobic A:VAL97>
1

> <Hydrophobic A:TRP98>
0

> <Hydrophobic A:PHE140>
0

> <Hydrophobic A:LEU141>
0

> <Hydrophobic A:ILE148>
0

> <Hydrophobic A:ILE150>
0

> <Hydrophobic A:HIS151>
0

> <Hydrophobic A:ILE152>
0

> <Hydrophobic A:ALA154>
0

> <Hydrophobic A:SER155>
0

> <Hydrophobic A:ILE156>
0

> <Hydrophobic A:GLY158>
0

> <Hydrophobic A:TYR159>
0

> <Hydrophobic A:ARG160>
0

> <Hydrophobic A:ARG161>
0

> <Hydrophobic A:ASP168>
0

> <Hydrophobic A:ASN171>
0

> <Hydrophobic A:PHE172>
0

> <Hydrophobic A:ARG174>
0

> <Hydrophobic A:PHE175>
0

> <Hydrophobic A:LEU178>
0

> <Hydrophobic A:ILE179>
0

> <Hydrophobic A:VAL180>
0

> <Hydrophobic A:LEU181>
0

> <Hydrophobic A:PHE186>
0

> <Hydrophobic A:ILE187>
2

> <Hydrophobic A:PHE188>
0

> <Hydrophobic A:ILE189>
0

> <Hydrophobic A:PRO190>
0

> <Hydrophobic A:PHE191>
0

> <Hydrophobic A:TYR240>
0

> <Hydrophobic A:PHE243>
0

> <Hydrophobic A:PHE247>
1

> <Hydrophobic A:PHE248>
1

> <Hydrophobic A:VAL251>
0

> <Hydrophobic A:TRP252>
0

> <Hydrophobic A:SER254>
0

> <Hydrophobic A:LEU261>
0

> <Hydrophobic A:ILE262>
0

> <Hydrophobic A:ILE263>
0

> <Hydrophobic A:TYR272>
0

> <Hydrophobic A:PRO273>
0

> <HydrogenBond A:LYS6>
0

> <HydrogenBond A:ARG55>
2

> <HydrogenBond A:GLY64>
0

> <HydrogenBond A:SER65>
0

> <HydrogenBond A:TRP66>
0

> <HydrogenBond A:SER69>
0

> <HydrogenBond A:PRO73>
0

> <HydrogenBond A:ALA74>
0

> <HydrogenBond A:PHE76>
0

> <HydrogenBond A:ALA77>
0

> <HydrogenBond A:THR78>
0

> <HydrogenBond A:GLU79>
0

> <HydrogenBond A:PHE82>
0

> <HydrogenBond A:ARG83>
0

> <HydrogenBond A:LEU85>
0

> <HydrogenBond A:THR86>
0

> <HydrogenBond A:TRP89>
0

> <HydrogenBond A:THR90>
0

> <HydrogenBond A:ASN93>
0

> <HydrogenBond A:HIS94>
0

> <HydrogenBond A:SER96>
0

> <HydrogenBond A:TRP98>
0

> <HydrogenBond A:ASN144>
0

> <HydrogenBond A:HIS151>
0

> <HydrogenBond A:ILE152>
0

> <HydrogenBond A:ALA154>
0

> <HydrogenBond A:SER155>
0

> <HydrogenBond A:ILE156>
0

> <HydrogenBond A:GLY158>
0

> <HydrogenBond A:TYR159>
0

> <HydrogenBond A:ASN162>
0

> <HydrogenBond A:LYS163>
0

> <HydrogenBond A:SER167>
0

> <HydrogenBond A:ASP168>
0

> <HydrogenBond A:SER169>
0

> <HydrogenBond A:ASN171>
0

> <HydrogenBond A:PHE172>
0

> <HydrogenBond A:THR173>
0

> <HydrogenBond A:ARG174>
0

> <HydrogenBond A:PHE175>
0

> <HydrogenBond A:SER176>
0

> <HydrogenBond A:SER177>
0

> <HydrogenBond A:ILE179>
0

> <HydrogenBond A:VAL180>
0

> <HydrogenBond A:SER183>
0

> <HydrogenBond A:THR184>
0

> <HydrogenBond A:PHE186>
0

> <HydrogenBond A:ILE187>
0

> <HydrogenBond A:PRO190>
0

> <HydrogenBond A:TYR240>
0

> <HydrogenBond A:PHE243>
0

> <HydrogenBond A:SER244>
0

> <HydrogenBond A:PHE247>
0

> <HydrogenBond A:VAL251>
0

> <HydrogenBond A:SER254>
0

> <HydrogenBond A:GLU255>
0

> <HydrogenBond A:ARG256>
0

> <HydrogenBond A:LEU257>
0

> <HydrogenBond A:GLU258>
0

> <HydrogenBond A:GLU259>
0

> <HydrogenBond A:ILE262>
0

> <HydrogenBond A:SER265>
0

> <HydrogenBond A:GLN266>
0

> <HydrogenBond A:MET268>
0

> <HydrogenBond A:GLY269>
0

> <HydrogenBond A:PRO273>
0

> <Other A:SER69>
0

> <Other A:TRP89>
0

> <Other A:TYR159>
0

> <Other A:PHE172>
0

> <Other A:SER176>
0

> <Other A:SER265>
0

$$$$
88879608
  SciTegic09122300493D

 69 68  0  0  0  0            999 V2000
   10.8390   -0.7405  -10.9739 O   0  0  0  1  0  0
    9.3999    1.0880  -12.3971 O   0  0  0  1  0  0
    9.9788    3.9868  -13.4206 O   0  0  0  1  0  0
   11.6229    5.3971  -12.8010 O   0  0  0  1  0  0
   12.8570    0.0633   -9.8259 C   0  0  0  1  0  0
   12.3651   -0.3232   -8.4232 C   0  0  0  1  0  0
   11.7701    0.3309  -10.8891 C   0  0  2  1  0  0
   11.9667    0.8618   -7.5154 C   0  0  0  1  0  0
   11.4564    0.4333   -6.1238 C   0  0  0  1  0  0
   11.0416    1.6800  -10.7202 C   0  0  0  1  0  0
   10.4348   -0.7012   -6.2531 C   0  0  0  1  0  0
   10.3501    2.0745  -12.0344 C   0  0  2  1  0  0
    9.4118   -0.9517   -5.1292 C   0  0  0  1  0  0
    8.4201    0.1685   -4.6586 C   0  0  0  1  0  0
    9.7998    3.5152  -12.0842 C   0  0  0  1  0  0
    7.2743   -0.0496   -3.7218 C   0  0  0  1  0  0
    6.9586    1.0781    2.0583 C   0  0  0  1  0  0
    6.9957    0.5357   -2.5529 C   0  0  0  1  0  0
    7.7927    2.3833    2.1355 C   0  0  0  1  0  0
    6.4136    0.7957    0.6615 C   0  0  0  1  0  0
    7.6252    1.7479   -1.9285 C   0  0  0  1  0  0
    6.9504    3.5982    2.5948 C   0  0  0  1  0  0
    6.0110    2.0654   -0.0435 C   0  0  0  1  0  0
    6.5553    2.5043   -1.1916 C   0  0  0  1  0  0
   10.9993    4.7890  -13.6627 C   0  0  0  1  0  0
    7.5749    4.4231    3.7343 C   0  0  0  1  0  0
   11.3672    4.8802  -15.1357 C   0  0  0  1  0  0
   10.1612   -0.5081  -11.6197 H   0  0
    8.6773    1.0995  -11.7771 H   0  0
   13.5422    0.9091   -9.7612 H   0  0
   13.4593   -0.7686  -10.1931 H   0  0
   11.5533   -1.0389   -8.5424 H   0  0
   13.1631   -0.8671   -7.9186 H   0  0
   12.3232    0.3694  -11.8348 H   0  0
   12.8141    1.5376   -7.3985 H   0  0
   11.1853    1.4429   -7.9966 H   0  0
   12.2906    0.1002   -5.5046 H   0  0
   11.0241    1.2979   -5.6229 H   0  0
   11.7674    2.4500  -10.4562 H   0  0
   10.3210    1.6393   -9.9048 H   0  0
   11.0033   -1.6245   -6.3763 H   0  0
    9.9236   -0.6060   -7.2011 H   0  0
   11.1215    2.0317  -12.8052 H   0  0
    9.9278   -1.3934   -4.2775 H   0  0
    8.8212   -1.7454   -5.5887 H   0  0
    7.8031    0.3827   -5.4979 H   0  0
    8.9619    1.0522   -4.3302 H   0  0
   10.3153    4.1506  -11.3598 H   0  0
    8.7411    3.5759  -11.8400 H   0  0
    6.5495   -0.7456   -4.0969 H   0  0
    7.5635    0.2250    2.3691 H   0  0
    6.1024    1.1040    2.7325 H   0  0
    6.1239    0.1715   -2.0383 H   0  0
    8.2391    2.5988    1.1636 H   0  0
    8.6844    2.2559    2.7488 H   0  0
    5.5667    0.1130    0.7146 H   0  0
    7.1810    0.2630    0.1036 H   0  0
    8.1217    2.3796   -2.6650 H   0  0
    8.3892    1.4268   -1.2213 H   0  0
    6.7891    4.2381    1.7290 H   0  0
    5.9454    3.3021    2.8945 H   0  0
    5.2430    2.6343    0.4389 H   0  0
    6.2684    3.4546   -1.5999 H   0  0
    8.6617    4.3648    3.7331 H   0  0
    7.2433    4.1061    4.7194 H   0  0
    7.2853    5.4721    3.6621 H   0  0
   10.6193    4.3759  -15.7380 H   0  0
   12.3243    4.3885  -15.2946 H   0  0
   11.4396    5.9200  -15.4468 H   0  0
  1  7  1  0
  2 12  1  0
  3 15  1  0
  3 25  1  0
  4 25  2  0
  5  6  1  0
  5  7  1  0
  6  8  1  0
  7 10  1  0
  8  9  1  0
  9 11  1  0
 10 12  1  0
 11 13  1  0
 12 15  1  0
 13 14  1  0
 14 16  1  0
 16 18  2  0
 17 19  1  0
 17 20  1  0
 18 21  1  0
 19 22  1  0
 20 23  1  0
 21 24  1  0
 22 26  1  0
 23 24  2  0
 25 27  1  0
  1 28  1  0
  2 29  1  0
  5 30  1  0
  5 31  1  0
  6 32  1  0
  6 33  1  0
  7 34  1  0
  8 35  1  0
  8 36  1  0
  9 37  1  0
  9 38  1  0
 10 39  1  0
 10 40  1  0
 11 41  1  0
 11 42  1  0
 12 43  1  0
 13 44  1  0
 13 45  1  0
 14 46  1  0
 14 47  1  0
 15 48  1  0
 15 49  1  0
 16 50  1  0
 17 51  1  0
 17 52  1  0
 18 53  1  0
 19 54  1  0
 19 55  1  0
 20 56  1  0
 20 57  1  0
 21 58  1  0
 21 59  1  0
 22 60  1  0
 22 61  1  0
 23 62  1  0
 24 63  1  0
 26 64  1  0
 26 65  1  0
 26 66  1  0
 27 67  1  0
 27 68  1  0
 27 69  1  0
M  END
> <Name>
88879608

> <Binding Energy>
-15.1316

> <Ligand Energy>
45.6047

> <Protein Energy>
-7801.1566

> <Complex Energy>
-7770.6836

> <Complex Entropy>
-31.4835

> <Protein Entropy>
-31.4717

> <Ligand Entropy>
-20.6922

> <Entropic Energy>
20.6804

> <AbsoluteEnergy>
39.1603

> <ConfNumber>
156

> <IonizationIndex>
1

> <MOL_NUMBER>
610

> <NumberOfIonizations>
1

> <NumberOfStereoisomers>
4

> <NumberOfTautomers>
1

> <PUBCHEM_ATOM_DEF_STEREO_COUNT>
0

> <PUBCHEM_ATOM_UDEF_STEREO_COUNT>
2

> <PUBCHEM_BONDANNOTATIONS>
7  1  3
12  2  3

> <PUBCHEM_BOND_DEF_STEREO_COUNT>
2

> <PUBCHEM_BOND_UDEF_STEREO_COUNT>
0

> <PUBCHEM_CACTVS_COMPLEXITY>
390

> <PUBCHEM_CACTVS_HBOND_ACCEPTOR>
4

> <PUBCHEM_CACTVS_HBOND_DONOR>
2

> <PUBCHEM_CACTVS_ROTATABLE_BOND>
19

> <PUBCHEM_CACTVS_SUBSKEYS>
AAADcfB4OAAAAAAAAAAAAAAAAAAAAAAAAAAAAAAAAAAAAAAAAAAAGgAACAAACBSggAICCAAABgCIACDSCAAAAAAgAAAICAAAAAgBEAIAAQACQAAFgAALAAPAwKAAAAAAAAAAAAAAAAAAAAAAAAAAAAAAAA==

> <PUBCHEM_CACTVS_TAUTO_COUNT>
-1

> <PUBCHEM_CACTVS_TPSA>
66.8

> <PUBCHEM_COMPONENT_COUNT>
1

> <PUBCHEM_COMPOUND_CANONICALIZED>
1

> <PUBCHEM_COMPOUND_CID>
88879608

> <PUBCHEM_COORDINATE_TYPE>
1
5
255

> <PUBCHEM_EXACT_MASS>
382.30830982

> <PUBCHEM_HEAVY_ATOM_COUNT>
27

> <PUBCHEM_ISOTOPIC_ATOM_COUNT>
0

> <PUBCHEM_IUPAC_CAS_NAME>
acetic acid [(12Z,15Z)-2,4-dihydroxyheneicosa-12,15-dienyl] ester

> <PUBCHEM_IUPAC_INCHI>
InChI=1S/C23H42O4/c1-3-4-5-6-7-8-9-10-11-12-13-14-15-16-17-18-22(25)19-23(26)20-27-21(2)24/h7-8,10-11,22-23,25-26H,3-6,9,12-20H2,1-2H3/b8-7-,11-10-

> <PUBCHEM_IUPAC_INCHIKEY>
GSWQTBYGARPWQP-NQLNTKRDSA-N

> <PUBCHEM_IUPAC_NAME>
[(12Z,15Z)-2,4-dihydroxyhenicosa-12,15-dienyl] acetate

> <PUBCHEM_IUPAC_NAME_MARKUP>
[(12<I>Z</I>,15<I>Z</I>)-2,4-dihydroxyhenicosa-12,15-dienyl] acetate

> <PUBCHEM_IUPAC_OPENEYE_NAME>
[(12Z,15Z)-2,4-dihydroxyhenicosa-12,15-dienyl] acetate

> <PUBCHEM_IUPAC_SYSTEMATIC_NAME>
[(12Z,15Z)-2,4-bis(oxidanyl)henicosa-12,15-dienyl] ethanoate

> <PUBCHEM_IUPAC_TRADITIONAL_NAME>
acetic acid [(12Z,15Z)-2,4-dihydroxyheneicosa-12,15-dienyl] ester

> <PUBCHEM_MOLECULAR_FORMULA>
C23H42O4

> <PUBCHEM_MOLECULAR_WEIGHT>
382.6

> <PUBCHEM_MONOISOTOPIC_WEIGHT>
382.30830982

> <PUBCHEM_OPENEYE_CAN_SMILES>
CCCCCC=CCC=CCCCCCCCC(CC(COC(=O)C)O)O

> <PUBCHEM_OPENEYE_ISO_SMILES>
CCCCC/C=C\C/C=C\CCCCCCCC(CC(COC(=O)C)O)O

> <PUBCHEM_TOTAL_CHARGE>
0

> <PUBCHEM_XLOGP3_AA>
6.5

> <RelativeEnergy>
11.8024

> <StereoisomerIndex>
4

> <TautomerIndex>
1

> <POSE_NUMBER>
8

> <LibDockScore>
128.2683

> <HotSpots>
9.41,-1.33,-5.66,A,37,13
7.21,1.27,-2.85,A,46,21
7.21,3.07,2.94,A,85,22

> <-In-Situ Starting Energy>
-3130.46266

> <-In-Situ Final Energy>
-9.02774536

> <In-Situ Gradient>
0.0009887372405

> <Favorable Total>
8

> <Unfavorable Total>
0

> <Charge Total>
0

> <Hydrophobic Total>
3

> <HydrogenBond Total>
5

> <Other Total>
0

> <Favorable A:LYS6>
0

> <Favorable A:ARG55>
0

> <Favorable A:LEU58>
0

> <Favorable A:LEU61>
0

> <Favorable A:ILE62>
0

> <Favorable A:GLY64>
0

> <Favorable A:SER65>
2

> <Favorable A:TRP66>
0

> <Favorable A:SER69>
0

> <Favorable A:VAL70>
0

> <Favorable A:PRO73>
0

> <Favorable A:ALA74>
0

> <Favorable A:PHE76>
0

> <Favorable A:ALA77>
0

> <Favorable A:THR78>
0

> <Favorable A:GLU79>
0

> <Favorable A:PHE82>
0

> <Favorable A:ARG83>
0

> <Favorable A:LEU85>
0

> <Favorable A:THR86>
2

> <Favorable A:TRP89>
0

> <Favorable A:THR90>
0

> <Favorable A:ASN93>
0

> <Favorable A:HIS94>
0

> <Favorable A:SER96>
0

> <Favorable A:VAL97>
1

> <Favorable A:TRP98>
0

> <Favorable A:PHE140>
0

> <Favorable A:LEU141>
0

> <Favorable A:ASN144>
0

> <Favorable A:ILE148>
0

> <Favorable A:ILE150>
0

> <Favorable A:HIS151>
0

> <Favorable A:ILE152>
0

> <Favorable A:ALA154>
0

> <Favorable A:SER155>
0

> <Favorable A:ILE156>
0

> <Favorable A:GLY158>
0

> <Favorable A:TYR159>
0

> <Favorable A:ARG160>
0

> <Favorable A:ARG161>
0

> <Favorable A:ASN162>
0

> <Favorable A:LYS163>
0

> <Favorable A:SER167>
0

> <Favorable A:ASP168>
0

> <Favorable A:SER169>
0

> <Favorable A:ASN171>
0

> <Favorable A:PHE172>
0

> <Favorable A:THR173>
0

> <Favorable A:ARG174>
0

> <Favorable A:PHE175>
0

> <Favorable A:SER176>
0

> <Favorable A:SER177>
0

> <Favorable A:LEU178>
0

> <Favorable A:ILE179>
0

> <Favorable A:VAL180>
0

> <Favorable A:LEU181>
0

> <Favorable A:SER183>
0

> <Favorable A:THR184>
0

> <Favorable A:PHE186>
0

> <Favorable A:ILE187>
1

> <Favorable A:PHE188>
0

> <Favorable A:ILE189>
0

> <Favorable A:PRO190>
0

> <Favorable A:PHE191>
0

> <Favorable A:TYR240>
1

> <Favorable A:PHE243>
0

> <Favorable A:SER244>
0

> <Favorable A:PHE247>
0

> <Favorable A:PHE248>
0

> <Favorable A:VAL251>
0

> <Favorable A:TRP252>
0

> <Favorable A:SER254>
0

> <Favorable A:GLU255>
0

> <Favorable A:ARG256>
0

> <Favorable A:LEU257>
0

> <Favorable A:GLU258>
0

> <Favorable A:GLU259>
0

> <Favorable A:LEU261>
0

> <Favorable A:ILE262>
0

> <Favorable A:ILE263>
0

> <Favorable A:SER265>
0

> <Favorable A:GLN266>
1

> <Favorable A:MET268>
0

> <Favorable A:GLY269>
0

> <Favorable A:TYR272>
0

> <Favorable A:PRO273>
0

> <Unfavorable A:ARG55>
0

> <Unfavorable A:PRO73>
0

> <Unfavorable A:PHE76>
0

> <Unfavorable A:GLU79>
0

> <Unfavorable A:ARG83>
0

> <Unfavorable A:THR86>
0

> <Unfavorable A:TRP89>
0

> <Unfavorable A:THR90>
0

> <Unfavorable A:ASN93>
0

> <Unfavorable A:TRP98>
0

> <Unfavorable A:ASN144>
0

> <Unfavorable A:SER155>
0

> <Unfavorable A:GLY158>
0

> <Unfavorable A:TYR159>
0

> <Unfavorable A:ASN162>
0

> <Unfavorable A:ASP168>
0

> <Unfavorable A:ASN171>
0

> <Unfavorable A:THR173>
0

> <Unfavorable A:ARG174>
0

> <Unfavorable A:SER183>
0

> <Unfavorable A:THR184>
0

> <Unfavorable A:PHE186>
0

> <Unfavorable A:SER244>
0

> <Unfavorable A:SER254>
0

> <Unfavorable A:GLU255>
0

> <Unfavorable A:SER265>
0

> <Unfavorable A:GLN266>
0

> <Unfavorable A:GLY269>
0

> <Charge A:ARG55>
0

> <Charge A:PHE76>
0

> <Charge A:GLU79>
0

> <Charge A:PHE82>
0

> <Charge A:ARG83>
0

> <Charge A:TRP89>
0

> <Charge A:HIS94>
0

> <Charge A:TRP98>
0

> <Charge A:TYR159>
0

> <Charge A:ARG161>
0

> <Charge A:LYS163>
0

> <Charge A:ASP168>
0

> <Charge A:PHE172>
0

> <Charge A:ARG174>
0

> <Charge A:PHE175>
0

> <Charge A:PHE188>
0

> <Charge A:PHE247>
0

> <Charge A:PHE248>
0

> <Hydrophobic A:LEU58>
0

> <Hydrophobic A:LEU61>
0

> <Hydrophobic A:ILE62>
0

> <Hydrophobic A:TRP66>
0

> <Hydrophobic A:VAL70>
0

> <Hydrophobic A:PRO73>
0

> <Hydrophobic A:ALA74>
0

> <Hydrophobic A:PHE76>
0

> <Hydrophobic A:ALA77>
0

> <Hydrophobic A:THR78>
0

> <Hydrophobic A:PHE82>
0

> <Hydrophobic A:ARG83>
0

> <Hydrophobic A:LEU85>
0

> <Hydrophobic A:TRP89>
0

> <Hydrophobic A:THR90>
0

> <Hydrophobic A:ASN93>
0

> <Hydrophobic A:HIS94>
0

> <Hydrophobic A:VAL97>
1

> <Hydrophobic A:TRP98>
0

> <Hydrophobic A:PHE140>
0

> <Hydrophobic A:LEU141>
0

> <Hydrophobic A:ILE148>
0

> <Hydrophobic A:ILE150>
0

> <Hydrophobic A:HIS151>
0

> <Hydrophobic A:ILE152>
0

> <Hydrophobic A:ALA154>
0

> <Hydrophobic A:SER155>
0

> <Hydrophobic A:ILE156>
0

> <Hydrophobic A:GLY158>
0

> <Hydrophobic A:TYR159>
0

> <Hydrophobic A:ARG160>
0

> <Hydrophobic A:ARG161>
0

> <Hydrophobic A:ASP168>
0

> <Hydrophobic A:ASN171>
0

> <Hydrophobic A:PHE172>
0

> <Hydrophobic A:ARG174>
0

> <Hydrophobic A:PHE175>
0

> <Hydrophobic A:LEU178>
0

> <Hydrophobic A:ILE179>
0

> <Hydrophobic A:VAL180>
0

> <Hydrophobic A:LEU181>
0

> <Hydrophobic A:PHE186>
0

> <Hydrophobic A:ILE187>
1

> <Hydrophobic A:PHE188>
0

> <Hydrophobic A:ILE189>
0

> <Hydrophobic A:PRO190>
0

> <Hydrophobic A:PHE191>
0

> <Hydrophobic A:TYR240>
1

> <Hydrophobic A:PHE243>
0

> <Hydrophobic A:PHE247>
0

> <Hydrophobic A:PHE248>
0

> <Hydrophobic A:VAL251>
0

> <Hydrophobic A:TRP252>
0

> <Hydrophobic A:SER254>
0

> <Hydrophobic A:LEU261>
0

> <Hydrophobic A:ILE262>
0

> <Hydrophobic A:ILE263>
0

> <Hydrophobic A:TYR272>
0

> <Hydrophobic A:PRO273>
0

> <HydrogenBond A:LYS6>
0

> <HydrogenBond A:ARG55>
0

> <HydrogenBond A:GLY64>
0

> <HydrogenBond A:SER65>
2

> <HydrogenBond A:TRP66>
0

> <HydrogenBond A:SER69>
0

> <HydrogenBond A:PRO73>
0

> <HydrogenBond A:ALA74>
0

> <HydrogenBond A:PHE76>
0

> <HydrogenBond A:ALA77>
0

> <HydrogenBond A:THR78>
0

> <HydrogenBond A:GLU79>
0

> <HydrogenBond A:PHE82>
0

> <HydrogenBond A:ARG83>
0

> <HydrogenBond A:LEU85>
0

> <HydrogenBond A:THR86>
2

> <HydrogenBond A:TRP89>
0

> <HydrogenBond A:THR90>
0

> <HydrogenBond A:ASN93>
0

> <HydrogenBond A:HIS94>
0

> <HydrogenBond A:SER96>
0

> <HydrogenBond A:TRP98>
0

> <HydrogenBond A:ASN144>
0

> <HydrogenBond A:HIS151>
0

> <HydrogenBond A:ILE152>
0

> <HydrogenBond A:ALA154>
0

> <HydrogenBond A:SER155>
0

> <HydrogenBond A:ILE156>
0

> <HydrogenBond A:GLY158>
0

> <HydrogenBond A:TYR159>
0

> <HydrogenBond A:ASN162>
0

> <HydrogenBond A:LYS163>
0

> <HydrogenBond A:SER167>
0

> <HydrogenBond A:ASP168>
0

> <HydrogenBond A:SER169>
0

> <HydrogenBond A:ASN171>
0

> <HydrogenBond A:PHE172>
0

> <HydrogenBond A:THR173>
0

> <HydrogenBond A:ARG174>
0

> <HydrogenBond A:PHE175>
0

> <HydrogenBond A:SER176>
0

> <HydrogenBond A:SER177>
0

> <HydrogenBond A:ILE179>
0

> <HydrogenBond A:VAL180>
0

> <HydrogenBond A:SER183>
0

> <HydrogenBond A:THR184>
0

> <HydrogenBond A:PHE186>
0

> <HydrogenBond A:ILE187>
0

> <HydrogenBond A:PRO190>
0

> <HydrogenBond A:TYR240>
0

> <HydrogenBond A:PHE243>
0

> <HydrogenBond A:SER244>
0

> <HydrogenBond A:PHE247>
0

> <HydrogenBond A:VAL251>
0

> <HydrogenBond A:SER254>
0

> <HydrogenBond A:GLU255>
0

> <HydrogenBond A:ARG256>
0

> <HydrogenBond A:LEU257>
0

> <HydrogenBond A:GLU258>
0

> <HydrogenBond A:GLU259>
0

> <HydrogenBond A:ILE262>
0

> <HydrogenBond A:SER265>
0

> <HydrogenBond A:GLN266>
1

> <HydrogenBond A:MET268>
0

> <HydrogenBond A:GLY269>
0

> <HydrogenBond A:PRO273>
0

> <Other A:SER69>
0

> <Other A:TRP89>
0

> <Other A:TYR159>
0

> <Other A:PHE172>
0

> <Other A:SER176>
0

> <Other A:SER265>
0

$$$$
101256943
  SciTegic09122300493D

 48 47  0  0  0  0            999 V2000
   12.9266    4.5857   -5.3119 O   0  0  0  1  0  0
    9.5425    2.1737  -12.1204 O   0  0  0  1  0  0
   10.0662    3.1619  -14.0878 O   0  0  0  1  0  0
    7.7328    9.5040   -3.0091 C   0  0  0  1  0  0
    7.7905    8.3077   -3.9545 C   0  0  0  1  0  0
    6.5587    9.3696   -2.0465 C   0  0  0  1  0  0
    9.1873    8.1326   -4.5214 C   0  0  0  1  0  0
    6.8407    9.8957   -0.6407 C   0  0  0  1  0  0
    9.3475    6.8385   -5.3322 C   0  0  0  1  0  0
    6.4271   11.3479   -0.4947 C   0  0  0  1  0  0
   10.4786    6.8985   -6.3344 C   0  0  0  1  0  0
   11.5032    6.0569   -6.5766 C   0  0  0  1  0  0
   11.7352    4.6605   -6.0546 C   0  0  1  1  0  0
   11.7842    3.7918   -7.2373 C   0  0  0  1  0  0
   11.6772    3.2266   -8.2812 C   0  0  0  1  0  0
   10.9078    1.8883  -11.8049 C   0  0  2  1  0  0
   11.4734    2.7526   -9.3554 C   0  0  0  1  0  0
   11.1034    0.3971  -11.8734 C   0  0  0  1  0  0
   11.2205    2.3401  -10.4445 C   0  0  0  1  0  0
    9.2492    2.7861  -13.2574 C   0  0  0  1  0  0
    7.7482    2.9675  -13.4658 C   0  0  0  1  0  0
   12.1805   -0.2086  -12.4051 C   0  0  0  1  0  0
   13.6547    4.6967   -5.9104 H   0  0
    7.6372   10.4224   -3.5852 H   0  0
    8.6681    9.5961   -2.4595 H   0  0
    7.0433    8.4067   -4.7424 H   0  0
    7.5454    7.4047   -3.4031 H   0  0
    6.2353    8.3311   -1.9620 H   0  0
    5.7477    9.9195   -2.5020 H   0  0
    9.8640    8.1282   -3.6684 H   0  0
    9.4252    9.0053   -5.1281 H   0  0
    7.8893    9.7761   -0.4016 H   0  0
    6.2930    9.3022    0.0930 H   0  0
    8.4020    6.6749   -5.8407 H   0  0
    9.4862    5.9888   -4.6662 H   0  0
    5.3508   11.3719   -0.6033 H   0  0
    6.8687   11.9779   -1.2657 H   0  0
    6.6956   11.7458    0.4840 H   0  0
   10.4933    7.8109   -6.8937 H   0  0
   12.2537    6.4111   -7.2631 H   0  0
   10.9211    4.3440   -5.4031 H   0  0
   11.5974    2.3878  -12.4902 H   0  0
   10.2580   -0.1846  -11.5513 H   0  0
    7.1951    2.3417  -12.7675 H   0  0
    7.4878    2.6714  -14.4797 H   0  0
    7.4744    4.0109  -13.3126 H   0  0
   13.0146    0.3565  -12.7785 H   0  0
   12.2525   -1.2765  -12.4807 H   0  0
  1 13  1  0
  2 16  1  0
  2 20  1  0
  3 20  2  0
  4  5  1  0
  4  6  1  0
  5  7  1  0
  6  8  1  0
  7  9  1  0
  8 10  1  0
  9 11  1  0
 11 12  2  0
 12 13  1  0
 13 14  1  0
 14 15  3  0
 15 17  1  0
 16 18  1  0
 16 19  1  0
 17 19  3  0
 18 22  2  0
 20 21  1  0
  1 23  1  0
  4 24  1  0
  4 25  1  0
  5 26  1  0
  5 27  1  0
  6 28  1  0
  6 29  1  0
  7 30  1  0
  7 31  1  0
  8 32  1  0
  8 33  1  0
  9 34  1  0
  9 35  1  0
 10 36  1  0
 10 37  1  0
 10 38  1  0
 11 39  1  0
 12 40  1  0
 13 41  1  0
 16 42  1  0
 18 43  1  0
 21 44  1  0
 21 45  1  0
 21 46  1  0
 22 47  1  0
 22 48  1  0
M  END
> <Name>
101256943

> <Binding Energy>
-28.5165

> <Ligand Energy>
11.963

> <Protein Energy>
-7801.1566

> <Complex Energy>
-7817.7102

> <Complex Entropy>
-31.4814

> <Protein Entropy>
-31.4717

> <Ligand Entropy>
-20.0601

> <Entropic Energy>
20.0504

> <AbsoluteEnergy>
27.8029

> <ConfNumber>
51

> <IonizationIndex>
1

> <MOL_NUMBER>
613

> <NumberOfIonizations>
1

> <NumberOfStereoisomers>
1

> <NumberOfTautomers>
1

> <PUBCHEM_ATOM_DEF_STEREO_COUNT>
2

> <PUBCHEM_ATOM_UDEF_STEREO_COUNT>
0

> <PUBCHEM_BOND_DEF_STEREO_COUNT>
1

> <PUBCHEM_BOND_UDEF_STEREO_COUNT>
0

> <PUBCHEM_CACTVS_TAUTO_COUNT>
2

> <PUBCHEM_COMPONENT_COUNT>
1

> <PUBCHEM_COMPOUND_CID>
101256943

> <PUBCHEM_CONFORMER_DIVERSEORDER>
3
36
44
34
76
61
67
37
72
28
64
38
70
47
68
9
5
43
39
33
66
54
63
62
32
26
18
57
59
14
71
17
7
45
55
69
29
42
53
51
41
73
75
10
15
60
27
20
21
58
30
65
46
74
35
1
16
25
12
8
31
13
40
24
49
4
22
6
23
19
11
56
50
52
2
48

> <PUBCHEM_CONFORMER_ID>
06090EEF00000003

> <PUBCHEM_CONFORMER_RMSD>
1

> <PUBCHEM_COORDINATE_TYPE>
2
5
10

> <PUBCHEM_EFFECTIVE_ROTOR_COUNT>
10

> <PUBCHEM_FEATURE_SELFOVERLAP>
25.372

> <PUBCHEM_HEAVY_ATOM_COUNT>
22

> <PUBCHEM_ISOTOPIC_ATOM_COUNT>
0

> <PUBCHEM_MMFF94_ENERGY>
8.8485

> <PUBCHEM_MMFF94_PARTIAL_CHARGES>
20
1 -0.68
11 -0.29
12 -0.29
13 0.62
14 -0.2
16 0.62
18 -0.29
19 -0.2
2 -0.43
20 0.66
21 0.06
22 -0.3
3 -0.57
38 0.15
39 0.15
41 0.4
43 0.15
47 0.15
48 0.15
9 0.14

> <PUBCHEM_PHARMACOPHORE_FEATURES>
5
1 1 acceptor
1 1 donor
1 10 hydrophobe
1 22 hydrophobe
1 3 acceptor

> <PUBCHEM_SHAPE_FINGERPRINT>
10429389 16 17698179348055682478
10498660 4 18336262353980676904
10670039 82 18262240993710772358
11595378 159 17749101162937009826
12596602 18 16732709345687622371
12788726 201 18187649042186732090
12954195 1 18123482583420436950
14251757 5 18260839201794560715
14681488 357 18342174496654536112
17818456 19 17901084353126627322
2297311 6 18336839632024651783
23557571 272 18411427184948221823
23559900 14 18413106186236972308

> <PUBCHEM_SHAPE_MULTIPOLES>
435.14
12.05
5.01
1.41
5.93
5.84
0.41
-7.15
-2.76
-1.79
0.02
2.03
-0.12
2.54

> <PUBCHEM_SHAPE_SELFOVERLAP>
832.858

> <PUBCHEM_SHAPE_VOLUME>
261.8

> <RelativeEnergy>
6.54763

> <StereoisomerIndex>
1

> <TautomerIndex>
1

> <POSE_NUMBER>
9

> <LibDockScore>
108.5695

> <HotSpots>
7.21,9.27,-3.25,A,45,6
10.81,8.27,-8.46,A,35,11
9.01,2.67,-14.05,A,21,21

> <-In-Situ Starting Energy>
-6888.00476

> <-In-Situ Final Energy>
9.52904792

> <In-Situ Gradient>
0.0006994953382

> <Favorable Total>
2

> <Unfavorable Total>
0

> <Charge Total>
0

> <Hydrophobic Total>
2

> <HydrogenBond Total>
0

> <Other Total>
0

> <Favorable A:LYS6>
0

> <Favorable A:ARG55>
0

> <Favorable A:LEU58>
0

> <Favorable A:LEU61>
0

> <Favorable A:ILE62>
0

> <Favorable A:GLY64>
0

> <Favorable A:SER65>
0

> <Favorable A:TRP66>
0

> <Favorable A:SER69>
0

> <Favorable A:VAL70>
0

> <Favorable A:PRO73>
0

> <Favorable A:ALA74>
0

> <Favorable A:PHE76>
0

> <Favorable A:ALA77>
0

> <Favorable A:THR78>
0

> <Favorable A:GLU79>
0

> <Favorable A:PHE82>
0

> <Favorable A:ARG83>
0

> <Favorable A:LEU85>
0

> <Favorable A:THR86>
0

> <Favorable A:TRP89>
0

> <Favorable A:THR90>
0

> <Favorable A:ASN93>
0

> <Favorable A:HIS94>
1

> <Favorable A:SER96>
0

> <Favorable A:VAL97>
0

> <Favorable A:TRP98>
1

> <Favorable A:PHE140>
0

> <Favorable A:LEU141>
0

> <Favorable A:ASN144>
0

> <Favorable A:ILE148>
0

> <Favorable A:ILE150>
0

> <Favorable A:HIS151>
0

> <Favorable A:ILE152>
0

> <Favorable A:ALA154>
0

> <Favorable A:SER155>
0

> <Favorable A:ILE156>
0

> <Favorable A:GLY158>
0

> <Favorable A:TYR159>
0

> <Favorable A:ARG160>
0

> <Favorable A:ARG161>
0

> <Favorable A:ASN162>
0

> <Favorable A:LYS163>
0

> <Favorable A:SER167>
0

> <Favorable A:ASP168>
0

> <Favorable A:SER169>
0

> <Favorable A:ASN171>
0

> <Favorable A:PHE172>
0

> <Favorable A:THR173>
0

> <Favorable A:ARG174>
0

> <Favorable A:PHE175>
0

> <Favorable A:SER176>
0

> <Favorable A:SER177>
0

> <Favorable A:LEU178>
0

> <Favorable A:ILE179>
0

> <Favorable A:VAL180>
0

> <Favorable A:LEU181>
0

> <Favorable A:SER183>
0

> <Favorable A:THR184>
0

> <Favorable A:PHE186>
0

> <Favorable A:ILE187>
0

> <Favorable A:PHE188>
0

> <Favorable A:ILE189>
0

> <Favorable A:PRO190>
0

> <Favorable A:PHE191>
0

> <Favorable A:TYR240>
0

> <Favorable A:PHE243>
0

> <Favorable A:SER244>
0

> <Favorable A:PHE247>
0

> <Favorable A:PHE248>
0

> <Favorable A:VAL251>
0

> <Favorable A:TRP252>
0

> <Favorable A:SER254>
0

> <Favorable A:GLU255>
0

> <Favorable A:ARG256>
0

> <Favorable A:LEU257>
0

> <Favorable A:GLU258>
0

> <Favorable A:GLU259>
0

> <Favorable A:LEU261>
0

> <Favorable A:ILE262>
0

> <Favorable A:ILE263>
0

> <Favorable A:SER265>
0

> <Favorable A:GLN266>
0

> <Favorable A:MET268>
0

> <Favorable A:GLY269>
0

> <Favorable A:TYR272>
0

> <Favorable A:PRO273>
0

> <Unfavorable A:ARG55>
0

> <Unfavorable A:PRO73>
0

> <Unfavorable A:PHE76>
0

> <Unfavorable A:GLU79>
0

> <Unfavorable A:ARG83>
0

> <Unfavorable A:THR86>
0

> <Unfavorable A:TRP89>
0

> <Unfavorable A:THR90>
0

> <Unfavorable A:ASN93>
0

> <Unfavorable A:TRP98>
0

> <Unfavorable A:ASN144>
0

> <Unfavorable A:SER155>
0

> <Unfavorable A:GLY158>
0

> <Unfavorable A:TYR159>
0

> <Unfavorable A:ASN162>
0

> <Unfavorable A:ASP168>
0

> <Unfavorable A:ASN171>
0

> <Unfavorable A:THR173>
0

> <Unfavorable A:ARG174>
0

> <Unfavorable A:SER183>
0

> <Unfavorable A:THR184>
0

> <Unfavorable A:PHE186>
0

> <Unfavorable A:SER244>
0

> <Unfavorable A:SER254>
0

> <Unfavorable A:GLU255>
0

> <Unfavorable A:SER265>
0

> <Unfavorable A:GLN266>
0

> <Unfavorable A:GLY269>
0

> <Charge A:ARG55>
0

> <Charge A:PHE76>
0

> <Charge A:GLU79>
0

> <Charge A:PHE82>
0

> <Charge A:ARG83>
0

> <Charge A:TRP89>
0

> <Charge A:HIS94>
0

> <Charge A:TRP98>
0

> <Charge A:TYR159>
0

> <Charge A:ARG161>
0

> <Charge A:LYS163>
0

> <Charge A:ASP168>
0

> <Charge A:PHE172>
0

> <Charge A:ARG174>
0

> <Charge A:PHE175>
0

> <Charge A:PHE188>
0

> <Charge A:PHE247>
0

> <Charge A:PHE248>
0

> <Hydrophobic A:LEU58>
0

> <Hydrophobic A:LEU61>
0

> <Hydrophobic A:ILE62>
0

> <Hydrophobic A:TRP66>
0

> <Hydrophobic A:VAL70>
0

> <Hydrophobic A:PRO73>
0

> <Hydrophobic A:ALA74>
0

> <Hydrophobic A:PHE76>
0

> <Hydrophobic A:ALA77>
0

> <Hydrophobic A:THR78>
0

> <Hydrophobic A:PHE82>
0

> <Hydrophobic A:ARG83>
0

> <Hydrophobic A:LEU85>
0

> <Hydrophobic A:TRP89>
0

> <Hydrophobic A:THR90>
0

> <Hydrophobic A:ASN93>
0

> <Hydrophobic A:HIS94>
1

> <Hydrophobic A:VAL97>
0

> <Hydrophobic A:TRP98>
1

> <Hydrophobic A:PHE140>
0

> <Hydrophobic A:LEU141>
0

> <Hydrophobic A:ILE148>
0

> <Hydrophobic A:ILE150>
0

> <Hydrophobic A:HIS151>
0

> <Hydrophobic A:ILE152>
0

> <Hydrophobic A:ALA154>
0

> <Hydrophobic A:SER155>
0

> <Hydrophobic A:ILE156>
0

> <Hydrophobic A:GLY158>
0

> <Hydrophobic A:TYR159>
0

> <Hydrophobic A:ARG160>
0

> <Hydrophobic A:ARG161>
0

> <Hydrophobic A:ASP168>
0

> <Hydrophobic A:ASN171>
0

> <Hydrophobic A:PHE172>
0

> <Hydrophobic A:ARG174>
0

> <Hydrophobic A:PHE175>
0

> <Hydrophobic A:LEU178>
0

> <Hydrophobic A:ILE179>
0

> <Hydrophobic A:VAL180>
0

> <Hydrophobic A:LEU181>
0

> <Hydrophobic A:PHE186>
0

> <Hydrophobic A:ILE187>
0

> <Hydrophobic A:PHE188>
0

> <Hydrophobic A:ILE189>
0

> <Hydrophobic A:PRO190>
0

> <Hydrophobic A:PHE191>
0

> <Hydrophobic A:TYR240>
0

> <Hydrophobic A:PHE243>
0

> <Hydrophobic A:PHE247>
0

> <Hydrophobic A:PHE248>
0

> <Hydrophobic A:VAL251>
0

> <Hydrophobic A:TRP252>
0

> <Hydrophobic A:SER254>
0

> <Hydrophobic A:LEU261>
0

> <Hydrophobic A:ILE262>
0

> <Hydrophobic A:ILE263>
0

> <Hydrophobic A:TYR272>
0

> <Hydrophobic A:PRO273>
0

> <HydrogenBond A:LYS6>
0

> <HydrogenBond A:ARG55>
0

> <HydrogenBond A:GLY64>
0

> <HydrogenBond A:SER65>
0

> <HydrogenBond A:TRP66>
0

> <HydrogenBond A:SER69>
0

> <HydrogenBond A:PRO73>
0

> <HydrogenBond A:ALA74>
0

> <HydrogenBond A:PHE76>
0

> <HydrogenBond A:ALA77>
0

> <HydrogenBond A:THR78>
0

> <HydrogenBond A:GLU79>
0

> <HydrogenBond A:PHE82>
0

> <HydrogenBond A:ARG83>
0

> <HydrogenBond A:LEU85>
0

> <HydrogenBond A:THR86>
0

> <HydrogenBond A:TRP89>
0

> <HydrogenBond A:THR90>
0

> <HydrogenBond A:ASN93>
0

> <HydrogenBond A:HIS94>
0

> <HydrogenBond A:SER96>
0

> <HydrogenBond A:TRP98>
0

> <HydrogenBond A:ASN144>
0

> <HydrogenBond A:HIS151>
0

> <HydrogenBond A:ILE152>
0

> <HydrogenBond A:ALA154>
0

> <HydrogenBond A:SER155>
0

> <HydrogenBond A:ILE156>
0

> <HydrogenBond A:GLY158>
0

> <HydrogenBond A:TYR159>
0

> <HydrogenBond A:ASN162>
0

> <HydrogenBond A:LYS163>
0

> <HydrogenBond A:SER167>
0

> <HydrogenBond A:ASP168>
0

> <HydrogenBond A:SER169>
0

> <HydrogenBond A:ASN171>
0

> <HydrogenBond A:PHE172>
0

> <HydrogenBond A:THR173>
0

> <HydrogenBond A:ARG174>
0

> <HydrogenBond A:PHE175>
0

> <HydrogenBond A:SER176>
0

> <HydrogenBond A:SER177>
0

> <HydrogenBond A:ILE179>
0

> <HydrogenBond A:VAL180>
0

> <HydrogenBond A:SER183>
0

> <HydrogenBond A:THR184>
0

> <HydrogenBond A:PHE186>
0

> <HydrogenBond A:ILE187>
0

> <HydrogenBond A:PRO190>
0

> <HydrogenBond A:TYR240>
0

> <HydrogenBond A:PHE243>
0

> <HydrogenBond A:SER244>
0

> <HydrogenBond A:PHE247>
0

> <HydrogenBond A:VAL251>
0

> <HydrogenBond A:SER254>
0

> <HydrogenBond A:GLU255>
0

> <HydrogenBond A:ARG256>
0

> <HydrogenBond A:LEU257>
0

> <HydrogenBond A:GLU258>
0

> <HydrogenBond A:GLU259>
0

> <HydrogenBond A:ILE262>
0

> <HydrogenBond A:SER265>
0

> <HydrogenBond A:GLN266>
0

> <HydrogenBond A:MET268>
0

> <HydrogenBond A:GLY269>
0

> <HydrogenBond A:PRO273>
0

> <Other A:SER69>
0

> <Other A:TRP89>
0

> <Other A:TYR159>
0

> <Other A:PHE172>
0

> <Other A:SER176>
0

> <Other A:SER265>
0

$$$$
101491239
  SciTegic09122300493D

 62 64  0  0  0  0            999 V2000
   11.7581    3.8794  -13.6083 O   0  0  0  1  0  0
   12.8216   -0.1023  -14.9579 O   0  0  0  1  0  0
   15.7748    3.1779  -13.3876 O   0  5  0  1  0  0
   15.0095    1.1139  -16.5954 O   0  0  0  1  0  0
   12.2249    0.8996  -11.9834 C   0  0  2  1  0  0
   12.0093    1.4806  -13.3753 C   0  0  1  1  0  0
   10.8569    1.0631  -11.2418 C   0  0  0  1  0  0
    9.8174    1.4824  -12.3413 C   0  0  2  1  0  0
   13.5757    2.9437  -12.3073 C   0  0  2  1  0  0
   13.4376    1.6598  -11.4398 C   0  0  0  1  0  0
   10.5643    1.1600  -13.6494 C   0  0  0  1  0  0
   12.3154    2.9365  -13.1315 C   0  0  0  1  0  0
   13.0560    0.9017  -14.3560 C   0  0  0  1  0  0
   10.9336    1.9730  -10.0033 C   0  0  0  1  0  0
   10.4170   -0.3190  -10.7246 C   0  0  0  1  0  0
   14.6853    2.6316  -13.3641 C   0  0  0  1  0  0
   13.6360    4.1975  -11.3953 C   0  0  0  1  0  0
   14.3787    1.5955  -14.4031 C   0  0  0  1  0  0
    9.2285    2.8798  -12.5013 C   0  0  0  1  0  0
   14.6422    5.2391  -11.7493 C   0  0  0  1  0  0
    7.9585    2.8601  -13.3237 C   0  0  0  1  0  0
   15.3626    1.2723  -15.4624 C   0  0  0  1  0  0
    9.5565    4.0336  -11.8906 C   0  0  0  1  0  0
   16.8500    1.1041  -15.0919 C   0  0  0  1  0  0
   15.8898    5.2089  -11.2589 C   0  0  0  1  0  0
   17.6649    2.2351  -15.7307 C   0  0  0  1  0  0
   17.3355   -0.2834  -15.5371 C   0  0  0  1  0  0
   16.4626    4.0002  -10.5567 C   0  0  0  1  0  0
   16.7809    6.4132  -11.2701 C   0  0  0  1  0  0
   12.4700   -0.1629  -12.0555 H   0  0
    8.9599    0.8149  -12.2558 H   0  0
   14.3272    1.0304  -11.5194 H   0  0
   13.3709    1.8463  -10.3709 H   0  0
   10.5991    0.0904  -13.8301 H   0  0
   10.1563    1.6551  -14.5253 H   0  0
   11.5015    2.8834  -10.1656 H   0  0
   11.4198    1.4627   -9.1712 H   0  0
    9.9421    2.2509   -9.6672 H   0  0
   11.1960   -0.8016  -10.1329 H   0  0
   10.1593   -0.9585  -11.5656 H   0  0
    9.5250   -0.2492  -10.1038 H   0  0
   12.6626    4.6823  -11.3175 H   0  0
   13.8241    3.8948  -10.3677 H   0  0
   14.2719    6.0756  -12.3070 H   0  0
    8.1868    2.7334  -14.3812 H   0  0
    7.3951    3.7878  -13.2142 H   0  0
    7.3013    2.0472  -13.0162 H   0  0
   10.3578    4.1502  -11.1982 H   0  0
    9.0195    4.9368  -12.1010 H   0  0
   16.9477    1.1757  -14.0082 H   0  0
   17.3238    3.2052  -15.3633 H   0  0
   17.5771    2.2320  -16.8174 H   0  0
   18.7177    2.1397  -15.4729 H   0  0
   17.2476   -0.4048  -16.6175 H   0  0
   16.7540   -1.0754  -15.0637 H   0  0
   18.3806   -0.4333  -15.2676 H   0  0
   15.7470    3.1909  -10.4465 H   0  0
   16.8327    4.2426   -9.5706 H   0  0
   17.2590    3.5776  -11.1677 H   0  0
   16.2272    7.3119  -11.5364 H   0  0
   17.5648    6.2628  -12.0107 H   0  0
   17.2272    6.5673  -10.2898 H   0  0
  1 12  2  0
  2 13  2  0
  3 16  1  0
  4 22  2  0
  5  6  1  0
  5  7  1  0
  5 10  1  0
  6 11  1  0
  6 12  1  0
  6 13  1  0
  7  8  1  0
  7 14  1  0
  7 15  1  0
  8 11  1  0
  8 19  1  0
  9 10  1  0
  9 12  1  0
  9 16  1  0
  9 17  1  0
 13 18  1  0
 16 18  2  0
 17 20  1  0
 18 22  1  0
 19 21  1  0
 19 23  2  0
 20 25  2  0
 22 24  1  0
 24 26  1  0
 24 27  1  0
 25 28  1  0
 25 29  1  0
  5 30  1  0
  8 31  1  0
 10 32  1  0
 10 33  1  0
 11 34  1  0
 11 35  1  0
 14 36  1  0
 14 37  1  0
 14 38  1  0
 15 39  1  0
 15 40  1  0
 15 41  1  0
 17 42  1  0
 17 43  1  0
 20 44  1  0
 21 45  1  0
 21 46  1  0
 21 47  1  0
 23 48  1  0
 23 49  1  0
 24 50  1  0
 26 51  1  0
 26 52  1  0
 26 53  1  0
 27 54  1  0
 27 55  1  0
 27 56  1  0
 28 57  1  0
 28 58  1  0
 28 59  1  0
 29 60  1  0
 29 61  1  0
 29 62  1  0
M  CHG  1   3  -1
M  END
> <Name>
101491239

> <Binding Energy>
-43.6066

> <Ligand Energy>
143.1562

> <Protein Energy>
-7801.1566

> <Complex Energy>
-7701.6071

> <Complex Entropy>
-31.4866

> <Protein Entropy>
-31.4717

> <Ligand Entropy>
-20.0112

> <Entropic Energy>
19.9962

> <AbsoluteEnergy>
68.582

> <ConfNumber>
58

> <Ionization pH>
7.5

> <IonizationIndex>
1

> <MOL_NUMBER>
616

> <NumberOfIonizations>
1

> <NumberOfStereoisomers>
1

> <NumberOfTautomers>
1

> <PUBCHEM_ATOM_DEF_STEREO_COUNT>
2

> <PUBCHEM_ATOM_UDEF_STEREO_COUNT>
2

> <PUBCHEM_BOND_DEF_STEREO_COUNT>
0

> <PUBCHEM_BOND_UDEF_STEREO_COUNT>
0

> <PUBCHEM_CACTVS_TAUTO_COUNT>
7

> <PUBCHEM_COMPONENT_COUNT>
1

> <PUBCHEM_COMPOUND_CID>
101491239

> <PUBCHEM_CONFORMER_DIVERSEORDER>
2
72
9
78
60
79
46
80
73
70
47
33
62
30
29
77
81
14
65
74
13
31
66
48
52
59
34
39
63
45
57
21
12
69
68
76
53
64
17
58
32
71
22
56
67
43
61
49
40
37
1
27
11
15
20
42
50
35
25
36
54
4
28
41
16
75
44
24
38
18
10
8
6
51
26
23
5
55
3
7
19

> <PUBCHEM_CONFORMER_ID>
060CA22700000002

> <PUBCHEM_CONFORMER_RMSD>
0.8

> <PUBCHEM_COORDINATE_TYPE>
2
5
10

> <PUBCHEM_EFFECTIVE_ROTOR_COUNT>
5.8

> <PUBCHEM_FEATURE_SELFOVERLAP>
45.721

> <PUBCHEM_HEAVY_ATOM_COUNT>
29

> <PUBCHEM_ISOTOPIC_ATOM_COUNT>
0

> <PUBCHEM_MMFF94_ENERGY>
101.7437

> <PUBCHEM_MMFF94_PARTIAL_CHARGES>
25
1 -0.57
12 0.45
13 0.49
16 -0.06
17 0.14
18 0.03
19 -0.28
2 -0.57
20 -0.29
21 0.14
22 0.49
23 -0.3
24 0.06
25 -0.28
28 0.14
29 0.14
3 -0.53
4 -0.57
44 0.15
48 0.45
49 0.15
50 0.15
6 0.12
8 0.14
9 0.2

> <PUBCHEM_PHARMACOPHORE_FEATURES>
9
1 1 acceptor
1 2 acceptor
1 3 donor
1 4 acceptor
3 24 26 27 hydrophobe
3 25 28 29 hydrophobe
3 7 14 15 hydrophobe
5 5 6 7 8 11 rings
8 5 6 9 10 12 13 16 18 rings

> <PUBCHEM_SHAPE_FINGERPRINT>
10074138 170 18196639903354484064
10411042 1 17256243173453801586
10794284 68 16963282624900735857
107951 10 18341909488661229094
10863032 1 18412544327485156908
10948715 1 18272651225157439437
12160290 23 18054203673707597479
12553582 1 17544181036378579986
12788726 201 18052237768529613911
13134695 92 17472704628956534855
13140716 1 18338803312383149761
133893 2 17981588382914789119
13583140 156 17385446548579286445
13955234 65 18050300171738807817
13965767 371 18188774920598437997
14713325 29 18053397766497915028
14790565 3 18410299090376426580
14856354 85 16588601897680884504
14955137 171 17905893578716558634
15042514 8 17904488750342682967
15475509 84 17113842124332995747
16945 1 18125710433873746917
17980427 26 18196927777848114877
18785283 64 18121502353808713411
20600515 1 17406861921046889835
20739085 24 18189628145942868204
20775438 99 15822930870731446367
21120745 212 17616553073229373333
21796203 349 16458850995782657226
22121540 332 13965602564411361096
23366157 5 18049158861330849855
23419403 2 17339616648695333823
23557571 272 17910947264770026368
23559900 14 18122332489334853798
283562 15 18341606084056219119
3091708 16 8905584048228433191
376196 1 17989488498172143284
4058900 60 18125181366997107824
458136 41 18268437828038509073
474 4 18198622142779085057
5265222 85 18264786380720588142
58807428 26 18339638941093633219
633830 44 18130222649242865605
6673363 416 17112984522628595228
79837 15 18338524152188284914
9981440 41 18409728452705599193

> <PUBCHEM_SHAPE_MULTIPOLES>
573.33
7.34
6.41
1.69
2.97
11.36
-0.28
-10.34
-1.74
-3.59
-1.95
0.2
-0.05
-0.52

> <PUBCHEM_SHAPE_SELFOVERLAP>
1221.675

> <PUBCHEM_SHAPE_VOLUME>
324.1

> <RelativeEnergy>
18.1104

> <StereoisomerIndex>
1

> <TautomerIndex>
1

> <POSE_NUMBER>
1

> <LibDockScore>
77.0852

> <HotSpots>
9.21,3.67,-12.86,A,26,14
7.21,2.27,-14.26,A,20,23
16.61,6.47,-11.46,A,30,29

> <-In-Situ Starting Energy>
-10487.7772

> <-In-Situ Final Energy>
-78.7115737

> <In-Situ Gradient>
0.000988755211

> <Favorable Total>
15

> <Unfavorable Total>
0

> <Charge Total>
0

> <Hydrophobic Total>
15

> <HydrogenBond Total>
0

> <Other Total>
0

> <Favorable A:LYS6>
0

> <Favorable A:ARG55>
0

> <Favorable A:LEU58>
0

> <Favorable A:LEU61>
1

> <Favorable A:ILE62>
0

> <Favorable A:GLY64>
0

> <Favorable A:SER65>
0

> <Favorable A:TRP66>
0

> <Favorable A:SER69>
0

> <Favorable A:VAL70>
0

> <Favorable A:PRO73>
0

> <Favorable A:ALA74>
0

> <Favorable A:PHE76>
0

> <Favorable A:ALA77>
0

> <Favorable A:THR78>
0

> <Favorable A:GLU79>
0

> <Favorable A:PHE82>
1

> <Favorable A:ARG83>
0

> <Favorable A:LEU85>
1

> <Favorable A:THR86>
0

> <Favorable A:TRP89>
8

> <Favorable A:THR90>
0

> <Favorable A:ASN93>
0

> <Favorable A:HIS94>
0

> <Favorable A:SER96>
0

> <Favorable A:VAL97>
0

> <Favorable A:TRP98>
0

> <Favorable A:PHE140>
0

> <Favorable A:LEU141>
0

> <Favorable A:ASN144>
0

> <Favorable A:ILE148>
0

> <Favorable A:ILE150>
0

> <Favorable A:HIS151>
0

> <Favorable A:ILE152>
0

> <Favorable A:ALA154>
0

> <Favorable A:SER155>
0

> <Favorable A:ILE156>
0

> <Favorable A:GLY158>
0

> <Favorable A:TYR159>
0

> <Favorable A:ARG160>
0

> <Favorable A:ARG161>
0

> <Favorable A:ASN162>
0

> <Favorable A:LYS163>
0

> <Favorable A:SER167>
0

> <Favorable A:ASP168>
0

> <Favorable A:SER169>
0

> <Favorable A:ASN171>
0

> <Favorable A:PHE172>
1

> <Favorable A:THR173>
0

> <Favorable A:ARG174>
0

> <Favorable A:PHE175>
0

> <Favorable A:SER176>
0

> <Favorable A:SER177>
0

> <Favorable A:LEU178>
0

> <Favorable A:ILE179>
1

> <Favorable A:VAL180>
2

> <Favorable A:LEU181>
0

> <Favorable A:SER183>
0

> <Favorable A:THR184>
0

> <Favorable A:PHE186>
0

> <Favorable A:ILE187>
0

> <Favorable A:PHE188>
0

> <Favorable A:ILE189>
0

> <Favorable A:PRO190>
0

> <Favorable A:PHE191>
0

> <Favorable A:TYR240>
0

> <Favorable A:PHE243>
0

> <Favorable A:SER244>
0

> <Favorable A:PHE247>
0

> <Favorable A:PHE248>
0

> <Favorable A:VAL251>
0

> <Favorable A:TRP252>
0

> <Favorable A:SER254>
0

> <Favorable A:GLU255>
0

> <Favorable A:ARG256>
0

> <Favorable A:LEU257>
0

> <Favorable A:GLU258>
0

> <Favorable A:GLU259>
0

> <Favorable A:LEU261>
0

> <Favorable A:ILE262>
0

> <Favorable A:ILE263>
0

> <Favorable A:SER265>
0

> <Favorable A:GLN266>
0

> <Favorable A:MET268>
0

> <Favorable A:GLY269>
0

> <Favorable A:TYR272>
0

> <Favorable A:PRO273>
0

> <Unfavorable A:ARG55>
0

> <Unfavorable A:PRO73>
0

> <Unfavorable A:PHE76>
0

> <Unfavorable A:GLU79>
0

> <Unfavorable A:ARG83>
0

> <Unfavorable A:THR86>
0

> <Unfavorable A:TRP89>
0

> <Unfavorable A:THR90>
0

> <Unfavorable A:ASN93>
0

> <Unfavorable A:TRP98>
0

> <Unfavorable A:ASN144>
0

> <Unfavorable A:SER155>
0

> <Unfavorable A:GLY158>
0

> <Unfavorable A:TYR159>
0

> <Unfavorable A:ASN162>
0

> <Unfavorable A:ASP168>
0

> <Unfavorable A:ASN171>
0

> <Unfavorable A:THR173>
0

> <Unfavorable A:ARG174>
0

> <Unfavorable A:SER183>
0

> <Unfavorable A:THR184>
0

> <Unfavorable A:PHE186>
0

> <Unfavorable A:SER244>
0

> <Unfavorable A:SER254>
0

> <Unfavorable A:GLU255>
0

> <Unfavorable A:SER265>
0

> <Unfavorable A:GLN266>
0

> <Unfavorable A:GLY269>
0

> <Charge A:ARG55>
0

> <Charge A:PHE76>
0

> <Charge A:GLU79>
0

> <Charge A:PHE82>
0

> <Charge A:ARG83>
0

> <Charge A:TRP89>
0

> <Charge A:HIS94>
0

> <Charge A:TRP98>
0

> <Charge A:TYR159>
0

> <Charge A:ARG161>
0

> <Charge A:LYS163>
0

> <Charge A:ASP168>
0

> <Charge A:PHE172>
0

> <Charge A:ARG174>
0

> <Charge A:PHE175>
0

> <Charge A:PHE188>
0

> <Charge A:PHE247>
0

> <Charge A:PHE248>
0

> <Hydrophobic A:LEU58>
0

> <Hydrophobic A:LEU61>
1

> <Hydrophobic A:ILE62>
0

> <Hydrophobic A:TRP66>
0

> <Hydrophobic A:VAL70>
0

> <Hydrophobic A:PRO73>
0

> <Hydrophobic A:ALA74>
0

> <Hydrophobic A:PHE76>
0

> <Hydrophobic A:ALA77>
0

> <Hydrophobic A:THR78>
0

> <Hydrophobic A:PHE82>
1

> <Hydrophobic A:ARG83>
0

> <Hydrophobic A:LEU85>
1

> <Hydrophobic A:TRP89>
8

> <Hydrophobic A:THR90>
0

> <Hydrophobic A:ASN93>
0

> <Hydrophobic A:HIS94>
0

> <Hydrophobic A:VAL97>
0

> <Hydrophobic A:TRP98>
0

> <Hydrophobic A:PHE140>
0

> <Hydrophobic A:LEU141>
0

> <Hydrophobic A:ILE148>
0

> <Hydrophobic A:ILE150>
0

> <Hydrophobic A:HIS151>
0

> <Hydrophobic A:ILE152>
0

> <Hydrophobic A:ALA154>
0

> <Hydrophobic A:SER155>
0

> <Hydrophobic A:ILE156>
0

> <Hydrophobic A:GLY158>
0

> <Hydrophobic A:TYR159>
0

> <Hydrophobic A:ARG160>
0

> <Hydrophobic A:ARG161>
0

> <Hydrophobic A:ASP168>
0

> <Hydrophobic A:ASN171>
0

> <Hydrophobic A:PHE172>
1

> <Hydrophobic A:ARG174>
0

> <Hydrophobic A:PHE175>
0

> <Hydrophobic A:LEU178>
0

> <Hydrophobic A:ILE179>
1

> <Hydrophobic A:VAL180>
2

> <Hydrophobic A:LEU181>
0

> <Hydrophobic A:PHE186>
0

> <Hydrophobic A:ILE187>
0

> <Hydrophobic A:PHE188>
0

> <Hydrophobic A:ILE189>
0

> <Hydrophobic A:PRO190>
0

> <Hydrophobic A:PHE191>
0

> <Hydrophobic A:TYR240>
0

> <Hydrophobic A:PHE243>
0

> <Hydrophobic A:PHE247>
0

> <Hydrophobic A:PHE248>
0

> <Hydrophobic A:VAL251>
0

> <Hydrophobic A:TRP252>
0

> <Hydrophobic A:SER254>
0

> <Hydrophobic A:LEU261>
0

> <Hydrophobic A:ILE262>
0

> <Hydrophobic A:ILE263>
0

> <Hydrophobic A:TYR272>
0

> <Hydrophobic A:PRO273>
0

> <HydrogenBond A:LYS6>
0

> <HydrogenBond A:ARG55>
0

> <HydrogenBond A:GLY64>
0

> <HydrogenBond A:SER65>
0

> <HydrogenBond A:TRP66>
0

> <HydrogenBond A:SER69>
0

> <HydrogenBond A:PRO73>
0

> <HydrogenBond A:ALA74>
0

> <HydrogenBond A:PHE76>
0

> <HydrogenBond A:ALA77>
0

> <HydrogenBond A:THR78>
0

> <HydrogenBond A:GLU79>
0

> <HydrogenBond A:PHE82>
0

> <HydrogenBond A:ARG83>
0

> <HydrogenBond A:LEU85>
0

> <HydrogenBond A:THR86>
0

> <HydrogenBond A:TRP89>
0

> <HydrogenBond A:THR90>
0

> <HydrogenBond A:ASN93>
0

> <HydrogenBond A:HIS94>
0

> <HydrogenBond A:SER96>
0

> <HydrogenBond A:TRP98>
0

> <HydrogenBond A:ASN144>
0

> <HydrogenBond A:HIS151>
0

> <HydrogenBond A:ILE152>
0

> <HydrogenBond A:ALA154>
0

> <HydrogenBond A:SER155>
0

> <HydrogenBond A:ILE156>
0

> <HydrogenBond A:GLY158>
0

> <HydrogenBond A:TYR159>
0

> <HydrogenBond A:ASN162>
0

> <HydrogenBond A:LYS163>
0

> <HydrogenBond A:SER167>
0

> <HydrogenBond A:ASP168>
0

> <HydrogenBond A:SER169>
0

> <HydrogenBond A:ASN171>
0

> <HydrogenBond A:PHE172>
0

> <HydrogenBond A:THR173>
0

> <HydrogenBond A:ARG174>
0

> <HydrogenBond A:PHE175>
0

> <HydrogenBond A:SER176>
0

> <HydrogenBond A:SER177>
0

> <HydrogenBond A:ILE179>
0

> <HydrogenBond A:VAL180>
0

> <HydrogenBond A:SER183>
0

> <HydrogenBond A:THR184>
0

> <HydrogenBond A:PHE186>
0

> <HydrogenBond A:ILE187>
0

> <HydrogenBond A:PRO190>
0

> <HydrogenBond A:TYR240>
0

> <HydrogenBond A:PHE243>
0

> <HydrogenBond A:SER244>
0

> <HydrogenBond A:PHE247>
0

> <HydrogenBond A:VAL251>
0

> <HydrogenBond A:SER254>
0

> <HydrogenBond A:GLU255>
0

> <HydrogenBond A:ARG256>
0

> <HydrogenBond A:LEU257>
0

> <HydrogenBond A:GLU258>
0

> <HydrogenBond A:GLU259>
0

> <HydrogenBond A:ILE262>
0

> <HydrogenBond A:SER265>
0

> <HydrogenBond A:GLN266>
0

> <HydrogenBond A:MET268>
0

> <HydrogenBond A:GLY269>
0

> <HydrogenBond A:PRO273>
0

> <Other A:SER69>
0

> <Other A:TRP89>
0

> <Other A:TYR159>
0

> <Other A:PHE172>
0

> <Other A:SER176>
0

> <Other A:SER265>
0

$$$$
122363509
  SciTegic09122300493D

 71 73  0  0  0  0            999 V2000
   16.4870    1.0971   -9.7068 O   0  0  0  1  0  0
   12.6998    2.2973  -12.0403 O   0  0  0  1  0  0
   12.4433    1.9906   -7.3987 O   0  0  0  1  0  0
   14.5365    1.3765   -6.0235 O   0  0  0  1  0  0
   22.6241   -0.0807   -9.2312 O   0  0  0  1  0  0
   12.5267    2.7560   -9.6807 C   0  0  0  1  0  0
   13.2333    2.2470  -10.9740 C   0  0  0  1  0  0
   11.0147    2.4448   -9.7672 C   0  0  0  1  0  0
   12.7566    4.2826   -9.5478 C   0  0  0  1  0  0
   13.0907    2.0905   -8.4006 C   0  0  0  1  0  0
   14.5044    1.6332   -8.4092 C   0  0  0  1  0  0
   14.6233    1.7126  -10.8966 C   0  0  0  1  0  0
   15.1996    1.4805   -9.7004 C   0  0  0  1  0  0
   17.2465    1.5564   -8.6111 C   0  0  1  1  0  0
   16.6330    1.1052   -7.2779 C   0  0  0  1  0  0
   15.1442    1.3451   -7.2515 C   0  0  0  1  0  0
   15.3108    1.2403  -12.1598 C   0  0  0  1  0  0
   10.2502    3.2191  -10.8161 C   0  0  0  1  0  0
   14.2171    4.6420   -9.5764 C   0  0  0  1  0  0
   18.6762    1.1289   -8.7855 C   0  0  0  1  0  0
    9.6260    2.7279  -11.9020 C   0  0  0  1  0  0
   14.8569    5.2547  -10.5849 C   0  0  0  1  0  0
   16.3476    2.2075  -12.6771 C   0  0  0  1  0  0
   19.7146    1.9307   -8.3207 C   0  0  0  1  0  0
   18.9805   -0.0548   -9.4492 C   0  0  0  1  0  0
   16.6175    2.5338  -13.9562 C   0  0  0  1  0  0
    8.9382    3.6280  -12.8971 C   0  0  0  1  0  0
    9.7579    1.3090  -12.3883 C   0  0  0  1  0  0
   14.2530    5.5299  -11.9326 C   0  0  0  1  0  0
   16.3513    5.4167  -10.5879 C   0  0  0  1  0  0
   21.0347    1.5573   -8.5205 C   0  0  0  1  0  0
   20.2996   -0.4427   -9.6311 C   0  0  0  1  0  0
   21.3245    0.3639   -9.1626 C   0  0  0  1  0  0
   15.8333    2.0754  -15.1621 C   0  0  0  1  0  0
   17.6219    3.6111  -14.2808 C   0  0  0  1  0  0
   13.5983    1.5259   -6.1204 H   0  0
   22.7510   -0.6384   -8.4638 H   0  0
   10.5725    2.6924   -8.8074 H   0  0
   10.8503    1.3743   -9.8851 H   0  0
   12.3177    4.6508   -8.6189 H   0  0
   12.2366    4.8236  -10.3332 H   0  0
   17.2349    2.6455   -8.6458 H   0  0
   16.8246    0.0449   -7.1112 H   0  0
   17.1079    1.6421   -6.4557 H   0  0
   15.8410    0.3132  -11.9373 H   0  0
   14.5828    0.9626  -12.9200 H   0  0
   10.1551    4.2677  -10.6061 H   0  0
   14.7474    4.4388   -8.6678 H   0  0
   16.8757    2.7333  -11.9008 H   0  0
   19.5076    2.8460   -7.7885 H   0  0
   18.1874   -0.6829   -9.8203 H   0  0
    9.2594    3.3987  -13.9127 H   0  0
    9.1672    4.6771  -12.7059 H   0  0
    7.8572    3.5013  -12.8416 H   0  0
   10.5881    0.7907  -11.9125 H   0  0
    9.9449    1.2851  -13.4615 H   0  0
    8.8449    0.7569  -12.1704 H   0  0
   14.1170    6.6020  -12.0666 H   0  0
   13.3024    5.0229  -12.0815 H   0  0
   14.9134    5.1462  -12.7035 H   0  0
   16.7870    4.7211   -9.8775 H   0  0
   16.6332    6.4356  -10.3220 H   0  0
   16.7828    5.1861  -11.5618 H   0  0
   21.8336    2.1808   -8.1479 H   0  0
   20.5300   -1.3790  -10.1182 H   0  0
   14.8771    1.6353  -14.8863 H   0  0
   16.4011    1.3281  -15.7161 H   0  0
   15.6237    2.9029  -15.8389 H   0  0
   18.5220    3.1625  -14.6985 H   0  0
   17.9115    4.1684  -13.3889 H   0  0
   17.2303    4.3223  -15.0060 H   0  0
  1 13  1  0
  1 14  1  0
  2  7  2  0
  3 10  2  0
  4 16  1  0
  5 33  1  0
  6  7  1  0
  6  8  1  0
  6  9  1  0
  6 10  1  0
  7 12  1  0
  8 18  1  0
  9 19  1  0
 10 11  1  0
 11 13  1  0
 11 16  2  0
 12 13  2  0
 12 17  1  0
 14 15  1  0
 14 20  1  0
 15 16  1  0
 17 23  1  0
 18 21  2  0
 19 22  2  0
 20 24  2  0
 20 25  1  0
 21 27  1  0
 21 28  1  0
 22 29  1  0
 22 30  1  0
 23 26  2  0
 24 31  1  0
 25 32  2  0
 26 34  1  0
 26 35  1  0
 31 33  2  0
 32 33  1  0
  4 36  1  0
  5 37  1  0
  8 38  1  0
  8 39  1  0
  9 40  1  0
  9 41  1  0
 14 42  1  0
 15 43  1  0
 15 44  1  0
 17 45  1  0
 17 46  1  0
 18 47  1  0
 19 48  1  0
 23 49  1  0
 24 50  1  0
 25 51  1  0
 27 52  1  0
 27 53  1  0
 27 54  1  0
 28 55  1  0
 28 56  1  0
 28 57  1  0
 29 58  1  0
 29 59  1  0
 29 60  1  0
 30 61  1  0
 30 62  1  0
 30 63  1  0
 31 64  1  0
 32 65  1  0
 34 66  1  0
 34 67  1  0
 34 68  1  0
 35 69  1  0
 35 70  1  0
 35 71  1  0
M  END
> <Name>
122363509

> <Binding Energy>
-45.7919

> <Ligand Energy>
108.8705

> <Protein Energy>
-7801.1566

> <Complex Energy>
-7738.0781

> <Complex Entropy>
-31.4894

> <Protein Entropy>
-31.4717

> <Ligand Entropy>
-20.593

> <Entropic Energy>
20.5752

> <AbsoluteEnergy>
65.8925

> <ConfNumber>
234

> <Ionization pH>
7.5

> <IonizationIndex>
1

> <MOL_NUMBER>
625

> <NumberOfIonizations>
1

> <NumberOfStereoisomers>
1

> <NumberOfTautomers>
3

> <PUBCHEM_ATOM_DEF_STEREO_COUNT>
0

> <PUBCHEM_ATOM_UDEF_STEREO_COUNT>
1

> <PUBCHEM_BOND_DEF_STEREO_COUNT>
0

> <PUBCHEM_BOND_UDEF_STEREO_COUNT>
0

> <PUBCHEM_CACTVS_TAUTO_COUNT>
18

> <PUBCHEM_COMPONENT_COUNT>
1

> <PUBCHEM_COMPOUND_CID>
122363509

> <PUBCHEM_CONFORMER_DIVERSEORDER>
2
36
168
134
9
139
146
188
27
34
164
89
130
186
171
67
49
47
173
52
37
108
109
184
43
189
62
179
156
121
170
149
102
124
111
127
132
160
99
59
187
125
110
152
119
38
180
155
88
77
128
145
120
15
28
181
190
177
161
73
14
66
12
154
165
178
167
135
16
74
82
87
157
136
131
31
94
182
92
83
90
13
78
105
95
51
126
169
162
53
61
133
151
98
72
46
106
123
140
142
80
148
100
41
69
101
129
45
115
65
159
96
158
150
56
138
64
175
70
55
29
144
84
44
166
7
93
174
176
137
153
117
103
107
26
11
54
32
185
85
58
104
35
6
172
4
60
63
42
24
97
25
114
76
147
163
57
183
116
33
75
39
118
23
19
112
86
22
10
113
48
50
68
3
40
91
21
141
8
143
122
1
71
5
18
20
30
79
81
17

> <PUBCHEM_CONFORMER_ID>
074B1E7500000002

> <PUBCHEM_CONFORMER_RMSD>
1

> <PUBCHEM_COORDINATE_TYPE>
2
5
10

> <PUBCHEM_EFFECTIVE_ROTOR_COUNT>
7.8

> <PUBCHEM_FEATURE_SELFOVERLAP>
55.849

> <PUBCHEM_HEAVY_ATOM_COUNT>
35

> <PUBCHEM_ISOTOPIC_ATOM_COUNT>
0

> <PUBCHEM_MMFF94_ENERGY>
78.5657

> <PUBCHEM_MMFF94_PARTIAL_CHARGES>
44
1 -0.36
10 0.49
11 0.03
12 -0.14
13 0.08
14 0.42
15 0.06
16 0.49
17 0.28
18 -0.29
19 -0.29
2 -0.53
20 -0.14
21 -0.28
22 -0.28
23 -0.29
24 -0.15
25 -0.15
26 -0.28
27 0.14
28 0.14
29 0.14
3 -0.57
30 0.14
31 -0.15
32 -0.15
33 0.08
34 0.14
35 0.14
4 -0.57
45 0.15
46 0.15
47 0.45
48 0.15
49 0.15
5 -0.53
50 0.15
6 0.2
63 0.15
64 0.15
7 -0.06
71 0.45
8 0.14
9 0.14

> <PUBCHEM_PHARMACOPHORE_FEATURES>
11
1 1 acceptor
1 2 donor
1 3 acceptor
1 4 acceptor
1 5 donor
3 21 27 28 hydrophobe
3 22 29 30 hydrophobe
3 26 34 35 hydrophobe
6 1 11 13 14 15 16 rings
6 20 24 25 31 32 33 rings
6 6 7 10 11 12 13 rings

> <PUBCHEM_SHAPE_FINGERPRINT>
10675989 125 17982460591820716553
11578080 2 17979316869797879488
11763715 3 17752214894526902902
12166972 35 18408037416595951373
12293681 160 17695648620170830048
12422481 6 17838332982772416546
12788726 201 18272938214951071906
13009979 54 18340488867866594704
13140716 1 17630593738042776467
13782708 43 18334573599306883379
15219462 58 17390554887906493160
19319366 153 18049160269853289082
20642791 105 18198902509522131073
20764821 26 17774142639423814045
21133410 90 17986083310946361541
2132832 1 18411700945926057888
21421861 104 18129929183366109826
21814621 53 17312822685131222097
22182313 1 17059212519095659198
23559900 14 18186797006516996555
3052486 1 17917727798354767985
3493558 16 17246406869564804717
376196 1 16122170579386174816
3886686 26 17261873252534904171
4144715 1 17821729451286935927
57527573 199 17696458956087608200
70251023 43 17749385932137831744

> <PUBCHEM_SHAPE_MULTIPOLES>
690.94
11.23
5.01
2.63
14.83
3.77
-0.09
-9.51
-2.03
-3.65
-0.1
-1
0.91
-3.54

> <PUBCHEM_SHAPE_SELFOVERLAP>
1462.512

> <PUBCHEM_SHAPE_VOLUME>
385.5

> <RelativeEnergy>
19.4526

> <StereoisomerIndex>
1

> <TautomerIndex>
3

> <POSE_NUMBER>
5

> <LibDockScore>
101.5519

> <HotSpots>
21.61,-3.53,-8.86,P,36,5
11.21,4.87,-14.65,A,18,27
16.61,6.47,-11.46,A,30,29

> <-In-Situ Starting Energy>
-293.898284

> <-In-Situ Final Energy>
-44.0789131

> <In-Situ Gradient>
0.002486392928

> <Favorable Total>
12

> <Unfavorable Total>
0

> <Charge Total>
0

> <Hydrophobic Total>
11

> <HydrogenBond Total>
1

> <Other Total>
0

> <Favorable A:LYS6>
0

> <Favorable A:ARG55>
0

> <Favorable A:LEU58>
0

> <Favorable A:LEU61>
0

> <Favorable A:ILE62>
0

> <Favorable A:GLY64>
0

> <Favorable A:SER65>
0

> <Favorable A:TRP66>
0

> <Favorable A:SER69>
0

> <Favorable A:VAL70>
0

> <Favorable A:PRO73>
0

> <Favorable A:ALA74>
0

> <Favorable A:PHE76>
0

> <Favorable A:ALA77>
0

> <Favorable A:THR78>
0

> <Favorable A:GLU79>
0

> <Favorable A:PHE82>
3

> <Favorable A:ARG83>
0

> <Favorable A:LEU85>
1

> <Favorable A:THR86>
0

> <Favorable A:TRP89>
3

> <Favorable A:THR90>
0

> <Favorable A:ASN93>
0

> <Favorable A:HIS94>
0

> <Favorable A:SER96>
0

> <Favorable A:VAL97>
0

> <Favorable A:TRP98>
0

> <Favorable A:PHE140>
0

> <Favorable A:LEU141>
0

> <Favorable A:ASN144>
0

> <Favorable A:ILE148>
0

> <Favorable A:ILE150>
0

> <Favorable A:HIS151>
0

> <Favorable A:ILE152>
0

> <Favorable A:ALA154>
0

> <Favorable A:SER155>
0

> <Favorable A:ILE156>
0

> <Favorable A:GLY158>
0

> <Favorable A:TYR159>
0

> <Favorable A:ARG160>
0

> <Favorable A:ARG161>
0

> <Favorable A:ASN162>
0

> <Favorable A:LYS163>
0

> <Favorable A:SER167>
0

> <Favorable A:ASP168>
0

> <Favorable A:SER169>
0

> <Favorable A:ASN171>
0

> <Favorable A:PHE172>
1

> <Favorable A:THR173>
0

> <Favorable A:ARG174>
0

> <Favorable A:PHE175>
0

> <Favorable A:SER176>
0

> <Favorable A:SER177>
0

> <Favorable A:LEU178>
0

> <Favorable A:ILE179>
2

> <Favorable A:VAL180>
1

> <Favorable A:LEU181>
0

> <Favorable A:SER183>
0

> <Favorable A:THR184>
0

> <Favorable A:PHE186>
0

> <Favorable A:ILE187>
0

> <Favorable A:PHE188>
0

> <Favorable A:ILE189>
0

> <Favorable A:PRO190>
0

> <Favorable A:PHE191>
0

> <Favorable A:TYR240>
0

> <Favorable A:PHE243>
0

> <Favorable A:SER244>
0

> <Favorable A:PHE247>
0

> <Favorable A:PHE248>
0

> <Favorable A:VAL251>
0

> <Favorable A:TRP252>
0

> <Favorable A:SER254>
1

> <Favorable A:GLU255>
0

> <Favorable A:ARG256>
0

> <Favorable A:LEU257>
0

> <Favorable A:GLU258>
0

> <Favorable A:GLU259>
0

> <Favorable A:LEU261>
0

> <Favorable A:ILE262>
0

> <Favorable A:ILE263>
0

> <Favorable A:SER265>
0

> <Favorable A:GLN266>
0

> <Favorable A:MET268>
0

> <Favorable A:GLY269>
0

> <Favorable A:TYR272>
0

> <Favorable A:PRO273>
0

> <Unfavorable A:ARG55>
0

> <Unfavorable A:PRO73>
0

> <Unfavorable A:PHE76>
0

> <Unfavorable A:GLU79>
0

> <Unfavorable A:ARG83>
0

> <Unfavorable A:THR86>
0

> <Unfavorable A:TRP89>
0

> <Unfavorable A:THR90>
0

> <Unfavorable A:ASN93>
0

> <Unfavorable A:TRP98>
0

> <Unfavorable A:ASN144>
0

> <Unfavorable A:SER155>
0

> <Unfavorable A:GLY158>
0

> <Unfavorable A:TYR159>
0

> <Unfavorable A:ASN162>
0

> <Unfavorable A:ASP168>
0

> <Unfavorable A:ASN171>
0

> <Unfavorable A:THR173>
0

> <Unfavorable A:ARG174>
0

> <Unfavorable A:SER183>
0

> <Unfavorable A:THR184>
0

> <Unfavorable A:PHE186>
0

> <Unfavorable A:SER244>
0

> <Unfavorable A:SER254>
0

> <Unfavorable A:GLU255>
0

> <Unfavorable A:SER265>
0

> <Unfavorable A:GLN266>
0

> <Unfavorable A:GLY269>
0

> <Charge A:ARG55>
0

> <Charge A:PHE76>
0

> <Charge A:GLU79>
0

> <Charge A:PHE82>
0

> <Charge A:ARG83>
0

> <Charge A:TRP89>
0

> <Charge A:HIS94>
0

> <Charge A:TRP98>
0

> <Charge A:TYR159>
0

> <Charge A:ARG161>
0

> <Charge A:LYS163>
0

> <Charge A:ASP168>
0

> <Charge A:PHE172>
0

> <Charge A:ARG174>
0

> <Charge A:PHE175>
0

> <Charge A:PHE188>
0

> <Charge A:PHE247>
0

> <Charge A:PHE248>
0

> <Hydrophobic A:LEU58>
0

> <Hydrophobic A:LEU61>
0

> <Hydrophobic A:ILE62>
0

> <Hydrophobic A:TRP66>
0

> <Hydrophobic A:VAL70>
0

> <Hydrophobic A:PRO73>
0

> <Hydrophobic A:ALA74>
0

> <Hydrophobic A:PHE76>
0

> <Hydrophobic A:ALA77>
0

> <Hydrophobic A:THR78>
0

> <Hydrophobic A:PHE82>
3

> <Hydrophobic A:ARG83>
0

> <Hydrophobic A:LEU85>
1

> <Hydrophobic A:TRP89>
3

> <Hydrophobic A:THR90>
0

> <Hydrophobic A:ASN93>
0

> <Hydrophobic A:HIS94>
0

> <Hydrophobic A:VAL97>
0

> <Hydrophobic A:TRP98>
0

> <Hydrophobic A:PHE140>
0

> <Hydrophobic A:LEU141>
0

> <Hydrophobic A:ILE148>
0

> <Hydrophobic A:ILE150>
0

> <Hydrophobic A:HIS151>
0

> <Hydrophobic A:ILE152>
0

> <Hydrophobic A:ALA154>
0

> <Hydrophobic A:SER155>
0

> <Hydrophobic A:ILE156>
0

> <Hydrophobic A:GLY158>
0

> <Hydrophobic A:TYR159>
0

> <Hydrophobic A:ARG160>
0

> <Hydrophobic A:ARG161>
0

> <Hydrophobic A:ASP168>
0

> <Hydrophobic A:ASN171>
0

> <Hydrophobic A:PHE172>
1

> <Hydrophobic A:ARG174>
0

> <Hydrophobic A:PHE175>
0

> <Hydrophobic A:LEU178>
0

> <Hydrophobic A:ILE179>
2

> <Hydrophobic A:VAL180>
1

> <Hydrophobic A:LEU181>
0

> <Hydrophobic A:PHE186>
0

> <Hydrophobic A:ILE187>
0

> <Hydrophobic A:PHE188>
0

> <Hydrophobic A:ILE189>
0

> <Hydrophobic A:PRO190>
0

> <Hydrophobic A:PHE191>
0

> <Hydrophobic A:TYR240>
0

> <Hydrophobic A:PHE243>
0

> <Hydrophobic A:PHE247>
0

> <Hydrophobic A:PHE248>
0

> <Hydrophobic A:VAL251>
0

> <Hydrophobic A:TRP252>
0

> <Hydrophobic A:SER254>
0

> <Hydrophobic A:LEU261>
0

> <Hydrophobic A:ILE262>
0

> <Hydrophobic A:ILE263>
0

> <Hydrophobic A:TYR272>
0

> <Hydrophobic A:PRO273>
0

> <HydrogenBond A:LYS6>
0

> <HydrogenBond A:ARG55>
0

> <HydrogenBond A:GLY64>
0

> <HydrogenBond A:SER65>
0

> <HydrogenBond A:TRP66>
0

> <HydrogenBond A:SER69>
0

> <HydrogenBond A:PRO73>
0

> <HydrogenBond A:ALA74>
0

> <HydrogenBond A:PHE76>
0

> <HydrogenBond A:ALA77>
0

> <HydrogenBond A:THR78>
0

> <HydrogenBond A:GLU79>
0

> <HydrogenBond A:PHE82>
0

> <HydrogenBond A:ARG83>
0

> <HydrogenBond A:LEU85>
0

> <HydrogenBond A:THR86>
0

> <HydrogenBond A:TRP89>
0

> <HydrogenBond A:THR90>
0

> <HydrogenBond A:ASN93>
0

> <HydrogenBond A:HIS94>
0

> <HydrogenBond A:SER96>
0

> <HydrogenBond A:TRP98>
0

> <HydrogenBond A:ASN144>
0

> <HydrogenBond A:HIS151>
0

> <HydrogenBond A:ILE152>
0

> <HydrogenBond A:ALA154>
0

> <HydrogenBond A:SER155>
0

> <HydrogenBond A:ILE156>
0

> <HydrogenBond A:GLY158>
0

> <HydrogenBond A:TYR159>
0

> <HydrogenBond A:ASN162>
0

> <HydrogenBond A:LYS163>
0

> <HydrogenBond A:SER167>
0

> <HydrogenBond A:ASP168>
0

> <HydrogenBond A:SER169>
0

> <HydrogenBond A:ASN171>
0

> <HydrogenBond A:PHE172>
0

> <HydrogenBond A:THR173>
0

> <HydrogenBond A:ARG174>
0

> <HydrogenBond A:PHE175>
0

> <HydrogenBond A:SER176>
0

> <HydrogenBond A:SER177>
0

> <HydrogenBond A:ILE179>
0

> <HydrogenBond A:VAL180>
0

> <HydrogenBond A:SER183>
0

> <HydrogenBond A:THR184>
0

> <HydrogenBond A:PHE186>
0

> <HydrogenBond A:ILE187>
0

> <HydrogenBond A:PRO190>
0

> <HydrogenBond A:TYR240>
0

> <HydrogenBond A:PHE243>
0

> <HydrogenBond A:SER244>
0

> <HydrogenBond A:PHE247>
0

> <HydrogenBond A:VAL251>
0

> <HydrogenBond A:SER254>
1

> <HydrogenBond A:GLU255>
0

> <HydrogenBond A:ARG256>
0

> <HydrogenBond A:LEU257>
0

> <HydrogenBond A:GLU258>
0

> <HydrogenBond A:GLU259>
0

> <HydrogenBond A:ILE262>
0

> <HydrogenBond A:SER265>
0

> <HydrogenBond A:GLN266>
0

> <HydrogenBond A:MET268>
0

> <HydrogenBond A:GLY269>
0

> <HydrogenBond A:PRO273>
0

> <Other A:SER69>
0

> <Other A:TRP89>
0

> <Other A:TYR159>
0

> <Other A:PHE172>
0

> <Other A:SER176>
0

> <Other A:SER265>
0

$$$$
122363510
  SciTegic09122300493D

 57 58  0  0  0  0            999 V2000
    9.6926    2.3234  -13.3259 O   0  0  0  1  0  0
   14.3588    1.6855  -15.4972 O   0  0  0  1  0  0
   13.0475   -2.0961  -12.8417 O   0  0  0  1  0  0
   15.8906   -2.7122  -16.7070 O   0  0  0  1  0  0
   15.7882   -0.8170  -18.4596 O   0  0  0  1  0  0
   18.1633    6.7693  -19.9682 O   0  0  0  1  0  0
   10.9500    2.1486  -12.6974 C   0  0  0  1  0  0
   11.7320    1.2270  -13.6513 C   0  0  0  1  0  0
   13.0620    0.6924  -13.1019 C   0  0  0  1  0  0
   10.7044    1.4708  -11.3392 C   0  0  0  1  0  0
   11.6747    3.4990  -12.5408 C   0  0  0  1  0  0
   13.7793   -0.1919  -14.1030 C   0  0  0  1  0  0
   14.4324    0.3270  -15.2319 C   0  0  0  1  0  0
    8.8551    3.3790  -12.8974 C   0  0  0  1  0  0
   13.7594   -1.5712  -13.9087 C   0  0  0  1  0  0
   15.1198   -0.5261  -16.1114 C   0  0  0  1  0  0
   14.4542   -2.4126  -14.7659 C   0  0  0  1  0  0
   15.1583   -1.8945  -15.8449 C   0  0  0  1  0  0
    7.4360    3.0974  -13.3809 C   0  0  0  1  0  0
   15.8006   -0.0354  -17.3349 C   0  0  0  1  0  0
   16.4437    1.1493  -17.3594 C   0  0  0  1  0  0
   16.5692   -3.7874  -16.0824 C   0  0  0  1  0  0
   17.1793    1.6300  -18.5413 C   0  0  0  1  0  0
   17.4102    2.9140  -18.8816 C   0  0  0  1  0  0
   18.2520    3.2448  -20.0471 C   0  0  0  1  0  0
   16.8406    4.0605  -18.1475 C   0  0  0  1  0  0
   18.5058    4.5114  -20.4322 C   0  0  0  1  0  0
   17.0732    5.3393  -18.5048 C   0  0  0  1  0  0
   17.9183    5.6389  -19.6785 C   0  0  0  1  0  0
   14.6931    2.1798  -14.7640 H   0  0
   12.7246   -2.9638  -13.0369 H   0  0
   15.4727   -1.6860  -18.2356 H   0  0
   11.1005    0.3810  -13.9238 H   0  0
   11.9231    1.7720  -14.5725 H   0  0
   12.8662    0.1137  -12.2009 H   0  0
   13.7092    1.4947  -12.7569 H   0  0
   10.1998    0.5132  -11.4702 H   0  0
   10.0824    2.0811  -10.6864 H   0  0
   11.6359    1.2915  -10.8038 H   0  0
   11.1401    4.1695  -11.8684 H   0  0
   11.7746    4.0003  -13.5039 H   0  0
   12.6746    3.3710  -12.1279 H   0  0
    9.2152    4.3223  -13.3094 H   0  0
    8.8635    3.4711  -11.8126 H   0  0
   14.4553   -3.4810  -14.6149 H   0  0
    7.0237    2.2201  -12.8841 H   0  0
    7.4308    2.8991  -14.4500 H   0  0
    6.7828    3.9472  -13.1849 H   0  0
   16.4627    1.8027  -16.5116 H   0  0
   15.8820   -4.5777  -15.7832 H   0  0
   17.1326   -3.4449  -15.2129 H   0  0
   17.2767   -4.2256  -16.7862 H   0  0
   17.5399    0.8400  -19.1746 H   0  0
   18.6718    2.4232  -20.5978 H   0  0
   16.2160    3.8532  -17.3001 H   0  0
   19.1275    4.7244  -21.2808 H   0  0
   16.6630    6.1619  -17.9546 H   0  0
  1  7  1  0
  1 14  1  0
  2 13  1  0
  3 15  1  0
  4 18  1  0
  4 22  1  0
  5 20  1  0
  6 29  2  0
  7  8  1  0
  7 10  1  0
  7 11  1  0
  8  9  1  0
  9 12  1  0
 12 13  2  0
 12 15  1  0
 13 16  1  0
 14 19  1  0
 15 17  2  0
 16 18  2  0
 16 20  1  0
 17 18  1  0
 20 21  2  0
 21 23  1  0
 23 24  2  0
 24 25  1  0
 24 26  1  0
 25 27  2  0
 26 28  2  0
 27 29  1  0
 28 29  1  0
  2 30  1  0
  3 31  1  0
  5 32  1  0
  8 33  1  0
  8 34  1  0
  9 35  1  0
  9 36  1  0
 10 37  1  0
 10 38  1  0
 10 39  1  0
 11 40  1  0
 11 41  1  0
 11 42  1  0
 14 43  1  0
 14 44  1  0
 17 45  1  0
 19 46  1  0
 19 47  1  0
 19 48  1  0
 21 49  1  0
 22 50  1  0
 22 51  1  0
 22 52  1  0
 23 53  1  0
 25 54  1  0
 26 55  1  0
 27 56  1  0
 28 57  1  0
M  END
> <Name>
122363510

> <Binding Energy>
-67.4843

> <Ligand Energy>
22.9508

> <Protein Energy>
-7801.1566

> <Complex Energy>
-7845.6901

> <Complex Entropy>
-31.4885

> <Protein Entropy>
-31.4717

> <Ligand Entropy>
-20.4788

> <Entropic Energy>
20.4619

> <AbsoluteEnergy>
55.3478

> <ConfNumber>
12

> <Ionization pH>
7.5

> <IonizationIndex>
1

> <MOL_NUMBER>
627

> <NumberOfIonizations>
1

> <NumberOfStereoisomers>
1

> <NumberOfTautomers>
4

> <PUBCHEM_ATOM_DEF_STEREO_COUNT>
0

> <PUBCHEM_ATOM_UDEF_STEREO_COUNT>
0

> <PUBCHEM_BOND_DEF_STEREO_COUNT>
1

> <PUBCHEM_BOND_UDEF_STEREO_COUNT>
0

> <PUBCHEM_CACTVS_TAUTO_COUNT>
292

> <PUBCHEM_COMPONENT_COUNT>
1

> <PUBCHEM_COMPOUND_CID>
122363510

> <PUBCHEM_CONFORMER_DIVERSEORDER>
9
33
49
97
90
81
70
53
76
60
71
67
68
57
69
94
36
54
77
6
95
26
78
100
102
101
79
87
27
5
85
50
98
83
92
47
45
20
48
58
12
25
31
80
41
89
17
39
74
72
63
61
93
28
15
56
65
16
66
11
42
99
73
43
62
19
29
8
23
82
59
35
44
84
64
10
18
40
14
91
38
75
32
55
30
51
2
96
46
21
3
52
34
7
24
13
37
88
22
1
86
4

> <PUBCHEM_CONFORMER_ID>
074B1E7600000009

> <PUBCHEM_CONFORMER_RMSD>
1

> <PUBCHEM_COORDINATE_TYPE>
2
5
10

> <PUBCHEM_EFFECTIVE_ROTOR_COUNT>
9

> <PUBCHEM_FEATURE_SELFOVERLAP>
45.672

> <PUBCHEM_HEAVY_ATOM_COUNT>
29

> <PUBCHEM_ISOTOPIC_ATOM_COUNT>
0

> <PUBCHEM_MMFF94_ENERGY>
106.3554

> <PUBCHEM_MMFF94_PARTIAL_CHARGES>
35
1 -0.56
12 -0.14
13 0.08
14 0.28
15 0.08
16 0.09
17 -0.15
18 0.08
2 -0.53
20 0.47
21 -0.14
22 0.28
23 -0.18
24 0.03
25 -0.15
26 -0.15
27 -0.15
28 -0.15
29 0.08
3 -0.53
4 -0.36
42 0.15
46 0.45
47 0.45
48 0.15
5 -0.57
52 0.15
53 0.15
54 0.15
55 0.15
56 0.15
57 0.45
6 -0.53
7 0.28
9 0.14

> <PUBCHEM_PHARMACOPHORE_FEATURES>
9
1 1 acceptor
1 2 donor
1 3 donor
1 4 acceptor
1 5 acceptor
1 6 donor
3 7 10 11 hydrophobe
6 12 13 15 16 17 18 rings
6 24 25 26 27 28 29 rings

> <PUBCHEM_SHAPE_FINGERPRINT>
10937287 8 18410012164890973567
11331351 85 17766265489004267430
11720765 8 17773609226334702710
12107183 9 18187633740078014890
12788726 201 16960161154502891390
12925494 130 18336825398106848304
13878862 14 18117256104653696317
13944108 23 18122915226350736444
14223995 32 18341887546117146184
14251764 75 18412554197578557009
14705955 166 17610903774417841056
14739800 52 18341322387790047584
14790565 3 18413388722587511399
14849402 71 18188494562576493918
15142526 21 18333733503202184243
15475509 8 18196379113679340222
16067690 210 17542759341868146136
20739085 24 17749678380740335542
21033648 144 18187079534498855471
21049683 118 18041829709714108426
21133410 62 18337129915863177817
22122407 14 18268441127185355065
23845131 108 18186523207016271667
245318 6 18042706020782301613
2838139 119 18201997784771993524
376196 1 18343300400771833454
38570 142 18336842921853316102
50080093 196 17981343191442780209
508180 173 18340783541910711298
5104073 3 18040438776487687659
59124914 9 18410857672632554692
5951187 136 18130514063079633500
7288768 16 18114742736973497491
7808743 9 18341611551122390503
9849439 229 18337385045336212737
9981440 41 18120927571647906634

> <PUBCHEM_SHAPE_MULTIPOLES>
561.59
14.79
6.25
1.49
15.1
0.56
-0.52
20.53
0
-2.96
-3.7
-1.45
0.09
0.09

> <PUBCHEM_SHAPE_SELFOVERLAP>
1181.144

> <PUBCHEM_SHAPE_VOLUME>
317.2

> <RelativeEnergy>
3.82361

> <StereoisomerIndex>
1

> <TautomerIndex>
2

> <POSE_NUMBER>
1

> <LibDockScore>
99.3621

> <HotSpots>
9.01,2.67,-14.05,A,21,14
16.81,4.47,-18.66,A,7,23
17.61,7.87,-18.45,A,8,28

> <-In-Situ Starting Energy>
-336.918738

> <-In-Situ Final Energy>
24.0594975

> <In-Situ Gradient>
0.003226894553

> <Favorable Total>
10

> <Unfavorable Total>
0

> <Charge Total>
0

> <Hydrophobic Total>
9

> <HydrogenBond Total>
1

> <Other Total>
0

> <Favorable A:LYS6>
0

> <Favorable A:ARG55>
0

> <Favorable A:LEU58>
0

> <Favorable A:LEU61>
1

> <Favorable A:ILE62>
0

> <Favorable A:GLY64>
0

> <Favorable A:SER65>
1

> <Favorable A:TRP66>
0

> <Favorable A:SER69>
0

> <Favorable A:VAL70>
0

> <Favorable A:PRO73>
0

> <Favorable A:ALA74>
0

> <Favorable A:PHE76>
1

> <Favorable A:ALA77>
1

> <Favorable A:THR78>
0

> <Favorable A:GLU79>
0

> <Favorable A:PHE82>
0

> <Favorable A:ARG83>
0

> <Favorable A:LEU85>
1

> <Favorable A:THR86>
0

> <Favorable A:TRP89>
3

> <Favorable A:THR90>
0

> <Favorable A:ASN93>
0

> <Favorable A:HIS94>
0

> <Favorable A:SER96>
0

> <Favorable A:VAL97>
0

> <Favorable A:TRP98>
0

> <Favorable A:PHE140>
0

> <Favorable A:LEU141>
0

> <Favorable A:ASN144>
0

> <Favorable A:ILE148>
0

> <Favorable A:ILE150>
0

> <Favorable A:HIS151>
0

> <Favorable A:ILE152>
0

> <Favorable A:ALA154>
0

> <Favorable A:SER155>
0

> <Favorable A:ILE156>
0

> <Favorable A:GLY158>
0

> <Favorable A:TYR159>
0

> <Favorable A:ARG160>
0

> <Favorable A:ARG161>
0

> <Favorable A:ASN162>
0

> <Favorable A:LYS163>
0

> <Favorable A:SER167>
0

> <Favorable A:ASP168>
0

> <Favorable A:SER169>
0

> <Favorable A:ASN171>
0

> <Favorable A:PHE172>
1

> <Favorable A:THR173>
0

> <Favorable A:ARG174>
0

> <Favorable A:PHE175>
0

> <Favorable A:SER176>
0

> <Favorable A:SER177>
0

> <Favorable A:LEU178>
0

> <Favorable A:ILE179>
0

> <Favorable A:VAL180>
0

> <Favorable A:LEU181>
0

> <Favorable A:SER183>
0

> <Favorable A:THR184>
0

> <Favorable A:PHE186>
0

> <Favorable A:ILE187>
0

> <Favorable A:PHE188>
0

> <Favorable A:ILE189>
0

> <Favorable A:PRO190>
0

> <Favorable A:PHE191>
0

> <Favorable A:TYR240>
0

> <Favorable A:PHE243>
0

> <Favorable A:SER244>
0

> <Favorable A:PHE247>
0

> <Favorable A:PHE248>
0

> <Favorable A:VAL251>
0

> <Favorable A:TRP252>
0

> <Favorable A:SER254>
0

> <Favorable A:GLU255>
0

> <Favorable A:ARG256>
0

> <Favorable A:LEU257>
0

> <Favorable A:GLU258>
0

> <Favorable A:GLU259>
0

> <Favorable A:LEU261>
0

> <Favorable A:ILE262>
1

> <Favorable A:ILE263>
0

> <Favorable A:SER265>
0

> <Favorable A:GLN266>
0

> <Favorable A:MET268>
0

> <Favorable A:GLY269>
0

> <Favorable A:TYR272>
0

> <Favorable A:PRO273>
0

> <Unfavorable A:ARG55>
0

> <Unfavorable A:PRO73>
0

> <Unfavorable A:PHE76>
0

> <Unfavorable A:GLU79>
0

> <Unfavorable A:ARG83>
0

> <Unfavorable A:THR86>
0

> <Unfavorable A:TRP89>
0

> <Unfavorable A:THR90>
0

> <Unfavorable A:ASN93>
0

> <Unfavorable A:TRP98>
0

> <Unfavorable A:ASN144>
0

> <Unfavorable A:SER155>
0

> <Unfavorable A:GLY158>
0

> <Unfavorable A:TYR159>
0

> <Unfavorable A:ASN162>
0

> <Unfavorable A:ASP168>
0

> <Unfavorable A:ASN171>
0

> <Unfavorable A:THR173>
0

> <Unfavorable A:ARG174>
0

> <Unfavorable A:SER183>
0

> <Unfavorable A:THR184>
0

> <Unfavorable A:PHE186>
0

> <Unfavorable A:SER244>
0

> <Unfavorable A:SER254>
0

> <Unfavorable A:GLU255>
0

> <Unfavorable A:SER265>
0

> <Unfavorable A:GLN266>
0

> <Unfavorable A:GLY269>
0

> <Charge A:ARG55>
0

> <Charge A:PHE76>
0

> <Charge A:GLU79>
0

> <Charge A:PHE82>
0

> <Charge A:ARG83>
0

> <Charge A:TRP89>
0

> <Charge A:HIS94>
0

> <Charge A:TRP98>
0

> <Charge A:TYR159>
0

> <Charge A:ARG161>
0

> <Charge A:LYS163>
0

> <Charge A:ASP168>
0

> <Charge A:PHE172>
0

> <Charge A:ARG174>
0

> <Charge A:PHE175>
0

> <Charge A:PHE188>
0

> <Charge A:PHE247>
0

> <Charge A:PHE248>
0

> <Hydrophobic A:LEU58>
0

> <Hydrophobic A:LEU61>
1

> <Hydrophobic A:ILE62>
0

> <Hydrophobic A:TRP66>
0

> <Hydrophobic A:VAL70>
0

> <Hydrophobic A:PRO73>
0

> <Hydrophobic A:ALA74>
0

> <Hydrophobic A:PHE76>
1

> <Hydrophobic A:ALA77>
1

> <Hydrophobic A:THR78>
0

> <Hydrophobic A:PHE82>
0

> <Hydrophobic A:ARG83>
0

> <Hydrophobic A:LEU85>
1

> <Hydrophobic A:TRP89>
3

> <Hydrophobic A:THR90>
0

> <Hydrophobic A:ASN93>
0

> <Hydrophobic A:HIS94>
0

> <Hydrophobic A:VAL97>
0

> <Hydrophobic A:TRP98>
0

> <Hydrophobic A:PHE140>
0

> <Hydrophobic A:LEU141>
0

> <Hydrophobic A:ILE148>
0

> <Hydrophobic A:ILE150>
0

> <Hydrophobic A:HIS151>
0

> <Hydrophobic A:ILE152>
0

> <Hydrophobic A:ALA154>
0

> <Hydrophobic A:SER155>
0

> <Hydrophobic A:ILE156>
0

> <Hydrophobic A:GLY158>
0

> <Hydrophobic A:TYR159>
0

> <Hydrophobic A:ARG160>
0

> <Hydrophobic A:ARG161>
0

> <Hydrophobic A:ASP168>
0

> <Hydrophobic A:ASN171>
0

> <Hydrophobic A:PHE172>
1

> <Hydrophobic A:ARG174>
0

> <Hydrophobic A:PHE175>
0

> <Hydrophobic A:LEU178>
0

> <Hydrophobic A:ILE179>
0

> <Hydrophobic A:VAL180>
0

> <Hydrophobic A:LEU181>
0

> <Hydrophobic A:PHE186>
0

> <Hydrophobic A:ILE187>
0

> <Hydrophobic A:PHE188>
0

> <Hydrophobic A:ILE189>
0

> <Hydrophobic A:PRO190>
0

> <Hydrophobic A:PHE191>
0

> <Hydrophobic A:TYR240>
0

> <Hydrophobic A:PHE243>
0

> <Hydrophobic A:PHE247>
0

> <Hydrophobic A:PHE248>
0

> <Hydrophobic A:VAL251>
0

> <Hydrophobic A:TRP252>
0

> <Hydrophobic A:SER254>
0

> <Hydrophobic A:LEU261>
0

> <Hydrophobic A:ILE262>
1

> <Hydrophobic A:ILE263>
0

> <Hydrophobic A:TYR272>
0

> <Hydrophobic A:PRO273>
0

> <HydrogenBond A:LYS6>
0

> <HydrogenBond A:ARG55>
0

> <HydrogenBond A:GLY64>
0

> <HydrogenBond A:SER65>
1

> <HydrogenBond A:TRP66>
0

> <HydrogenBond A:SER69>
0

> <HydrogenBond A:PRO73>
0

> <HydrogenBond A:ALA74>
0

> <HydrogenBond A:PHE76>
0

> <HydrogenBond A:ALA77>
0

> <HydrogenBond A:THR78>
0

> <HydrogenBond A:GLU79>
0

> <HydrogenBond A:PHE82>
0

> <HydrogenBond A:ARG83>
0

> <HydrogenBond A:LEU85>
0

> <HydrogenBond A:THR86>
0

> <HydrogenBond A:TRP89>
0

> <HydrogenBond A:THR90>
0

> <HydrogenBond A:ASN93>
0

> <HydrogenBond A:HIS94>
0

> <HydrogenBond A:SER96>
0

> <HydrogenBond A:TRP98>
0

> <HydrogenBond A:ASN144>
0

> <HydrogenBond A:HIS151>
0

> <HydrogenBond A:ILE152>
0

> <HydrogenBond A:ALA154>
0

> <HydrogenBond A:SER155>
0

> <HydrogenBond A:ILE156>
0

> <HydrogenBond A:GLY158>
0

> <HydrogenBond A:TYR159>
0

> <HydrogenBond A:ASN162>
0

> <HydrogenBond A:LYS163>
0

> <HydrogenBond A:SER167>
0

> <HydrogenBond A:ASP168>
0

> <HydrogenBond A:SER169>
0

> <HydrogenBond A:ASN171>
0

> <HydrogenBond A:PHE172>
0

> <HydrogenBond A:THR173>
0

> <HydrogenBond A:ARG174>
0

> <HydrogenBond A:PHE175>
0

> <HydrogenBond A:SER176>
0

> <HydrogenBond A:SER177>
0

> <HydrogenBond A:ILE179>
0

> <HydrogenBond A:VAL180>
0

> <HydrogenBond A:SER183>
0

> <HydrogenBond A:THR184>
0

> <HydrogenBond A:PHE186>
0

> <HydrogenBond A:ILE187>
0

> <HydrogenBond A:PRO190>
0

> <HydrogenBond A:TYR240>
0

> <HydrogenBond A:PHE243>
0

> <HydrogenBond A:SER244>
0

> <HydrogenBond A:PHE247>
0

> <HydrogenBond A:VAL251>
0

> <HydrogenBond A:SER254>
0

> <HydrogenBond A:GLU255>
0

> <HydrogenBond A:ARG256>
0

> <HydrogenBond A:LEU257>
0

> <HydrogenBond A:GLU258>
0

> <HydrogenBond A:GLU259>
0

> <HydrogenBond A:ILE262>
0

> <HydrogenBond A:SER265>
0

> <HydrogenBond A:GLN266>
0

> <HydrogenBond A:MET268>
0

> <HydrogenBond A:GLY269>
0

> <HydrogenBond A:PRO273>
0

> <Other A:SER69>
0

> <Other A:TRP89>
0

> <Other A:TYR159>
0

> <Other A:PHE172>
0

> <Other A:SER176>
0

> <Other A:SER265>
0

$$$$
122363511
  SciTegic09122300493D

 57 59  0  0  0  0            999 V2000
   12.9636    1.8870   -7.9658 O   0  0  0  1  0  0
   11.7374    3.4646  -13.2223 O   0  0  0  1  0  0
   17.8215    1.3895   -7.5973 O   0  0  0  1  0  0
   15.7453    3.0005  -11.5026 O   0  0  0  1  0  0
   16.2235    0.1585   -5.9173 O   0  0  0  1  0  0
   12.8949    6.1337   -3.1587 O   0  0  0  1  0  0
   11.2701    2.5351  -12.2632 C   0  0  0  1  0  0
   12.5245    2.0537  -11.5035 C   0  0  0  1  0  0
   13.0881    3.0331  -10.4623 C   0  0  0  1  0  0
   14.2978    2.4564   -9.7576 C   0  0  0  1  0  0
   14.2130    1.9460   -8.5110 C   0  0  0  1  0  0
   12.8252    1.6022   -6.5950 C   0  0  1  1  0  0
   15.3990    1.4243   -7.7814 C   0  0  0  1  0  0
   13.8060    0.5103   -6.1263 C   0  0  0  1  0  0
   10.6390    1.3231  -12.9739 C   0  0  0  1  0  0
   10.2460    3.2102  -11.3368 C   0  0  0  1  0  0
   15.1956    0.6456   -6.6917 C   0  0  0  1  0  0
   15.6329    2.5908  -10.3875 C   0  0  0  1  0  0
   16.7345    1.7033   -8.3657 C   0  0  0  1  0  0
   12.9048    2.8904   -5.8026 C   0  0  0  1  0  0
   16.8375    2.2337   -9.6071 C   0  0  0  1  0  0
   10.8191    4.0602  -14.1175 C   0  0  0  1  0  0
   11.8168    3.7581   -5.7534 C   0  0  0  1  0  0
   14.0271    3.2143   -5.0556 C   0  0  0  1  0  0
   11.6199    4.6151  -15.2915 C   0  0  0  1  0  0
   11.8187    4.8656   -4.9045 C   0  0  0  1  0  0
   13.9996    4.2602   -4.1534 C   0  0  0  1  0  0
   12.9059    5.0976   -4.0728 C   0  0  0  1  0  0
   19.1264    1.5850   -8.1063 C   0  0  0  1  0  0
   17.0995    0.4101   -6.2008 H   0  0
   13.7875    6.3916   -2.9245 H   0  0
   12.2878    1.1254  -10.9819 H   0  0
   13.3020    1.8022  -12.2263 H   0  0
   13.3563    3.9748  -10.9432 H   0  0
   12.3148    3.2830   -9.7377 H   0  0
   11.8162    1.2175   -6.4422 H   0  0
   13.4188   -0.4613   -6.4319 H   0  0
   13.8419    0.4776   -5.0379 H   0  0
   11.3018    0.9365  -13.7484 H   0  0
    9.6845    1.5673  -13.4370 H   0  0
   10.4413    0.5142  -12.2699 H   0  0
    9.3166    3.4302  -11.8620 H   0  0
   10.6243    4.1538  -10.9444 H   0  0
   10.0038    2.5655  -10.4919 H   0  0
   17.7815    2.4184  -10.0808 H   0  0
   10.2493    4.8439  -13.6173 H   0  0
   10.1080    3.3286  -14.4927 H   0  0
   10.9621    3.5384   -6.3707 H   0  0
   14.9279    2.6261   -5.1184 H   0  0
   12.3998    3.9114  -15.5794 H   0  0
   12.0974    5.5554  -15.0348 H   0  0
   11.0024    4.7898  -16.1670 H   0  0
   10.9692    5.5291   -4.8568 H   0  0
   14.8495    4.3776   -3.5093 H   0  0
   19.3115    2.6393   -8.3072 H   0  0
   19.2809    1.0030   -9.0153 H   0  0
   19.8587    1.2545   -7.3689 H   0  0
  1 11  1  0
  1 12  1  0
  2  7  1  0
  2 22  1  0
  3 19  1  0
  3 29  1  0
  4 18  2  0
  5 17  1  0
  6 28  1  0
  7  8  1  0
  7 15  1  0
  7 16  1  0
  8  9  1  0
  9 10  1  0
 10 11  2  0
 10 18  1  0
 11 13  1  0
 12 14  1  0
 12 20  1  0
 13 17  2  0
 13 19  1  0
 14 17  1  0
 18 21  1  0
 19 21  2  0
 20 23  2  0
 20 24  1  0
 22 25  1  0
 23 26  1  0
 24 27  2  0
 26 28  2  0
 27 28  1  0
  5 30  1  0
  6 31  1  0
  8 32  1  0
  8 33  1  0
  9 34  1  0
  9 35  1  0
 12 36  1  0
 14 37  1  0
 14 38  1  0
 15 39  1  0
 15 40  1  0
 15 41  1  0
 16 42  1  0
 16 43  1  0
 16 44  1  0
 21 45  1  0
 22 46  1  0
 22 47  1  0
 23 48  1  0
 24 49  1  0
 25 50  1  0
 25 51  1  0
 25 52  1  0
 26 53  1  0
 27 54  1  0
 29 55  1  0
 29 56  1  0
 29 57  1  0
M  END
> <Name>
122363511

> <Binding Energy>
-64.169

> <Ligand Energy>
26.9314

> <Protein Energy>
-7801.1566

> <Complex Energy>
-7838.3942

> <Complex Entropy>
-31.4856

> <Protein Entropy>
-31.4717

> <Ligand Entropy>
-20.2752

> <Entropic Energy>
20.2613

> <AbsoluteEnergy>
56.197

> <ConfNumber>
74

> <Ionization pH>
7.5

> <IonizationIndex>
1

> <MOL_NUMBER>
631

> <NumberOfIonizations>
1

> <NumberOfStereoisomers>
1

> <NumberOfTautomers>
2

> <PUBCHEM_ATOM_DEF_STEREO_COUNT>
0

> <PUBCHEM_ATOM_UDEF_STEREO_COUNT>
1

> <PUBCHEM_BOND_DEF_STEREO_COUNT>
0

> <PUBCHEM_BOND_UDEF_STEREO_COUNT>
0

> <PUBCHEM_CACTVS_TAUTO_COUNT>
18

> <PUBCHEM_COMPONENT_COUNT>
1

> <PUBCHEM_COMPOUND_CID>
122363511

> <PUBCHEM_CONFORMER_DIVERSEORDER>
1
60
51
61
27
42
34
41
38
67
62
21
53
28
43
57
66
65
44
35
63
59
47
26
39
10
2
31
33
36
29
32
19
49
56
15
22
12
55
68
17
24
45
52
14
25
13
69
18
23
11
48
16
40
64
46
30
54
20
8
5
37
4
3
58
9
50
7
6

> <PUBCHEM_CONFORMER_ID>
074B1E7700000001

> <PUBCHEM_CONFORMER_RMSD>
1

> <PUBCHEM_COORDINATE_TYPE>
2
5
10

> <PUBCHEM_EFFECTIVE_ROTOR_COUNT>
7.6

> <PUBCHEM_FEATURE_SELFOVERLAP>
50.788

> <PUBCHEM_HEAVY_ATOM_COUNT>
29

> <PUBCHEM_ISOTOPIC_ATOM_COUNT>
0

> <PUBCHEM_MMFF94_ENERGY>
99.056

> <PUBCHEM_MMFF94_PARTIAL_CHARGES>
32
1 -0.36
10 -0.14
11 0.08
12 0.42
13 0.09
14 0.06
17 0.42
18 0.08
19 0.08
2 -0.56
20 -0.14
21 -0.15
22 0.28
23 -0.15
24 -0.15
26 -0.15
27 -0.15
28 0.08
29 0.28
3 -0.36
4 -0.53
43 0.15
46 0.15
47 0.15
48 0.45
5 -0.57
52 0.15
53 0.15
57 0.45
6 -0.53
7 0.28
9 0.14

> <PUBCHEM_PHARMACOPHORE_FEATURES>
10
1 1 acceptor
1 2 acceptor
1 3 acceptor
1 4 donor
1 5 acceptor
1 6 donor
3 7 15 16 hydrophobe
6 1 11 12 13 14 17 rings
6 10 11 13 18 19 21 rings
6 20 23 24 26 27 28 rings

> <PUBCHEM_SHAPE_FINGERPRINT>
10074138 170 18121467367648452232
10190206 1 17179708342403885844
10675989 125 18049715222810564689
1100329 8 18338796689633639874
11135609 187 18339067221608946837
11513181 2 18130790091869508422
11578080 2 16987700458913603482
12236239 1 17632573808693724373
12293681 4 18049714419276880791
12422481 6 18047508679509448411
12788726 201 18195792184390352235
13140716 1 18340206284899000346
13540713 4 18128827507512412596
1361 2 18337110069214817633
13692114 37 18198606925551147591
138480 1 17545320779027775383
13911987 19 18046371668052828988
140371 6 18047471415529363470
14681490 219 18053931025791299751
16112460 7 18270971136977465329
17138139 8 17843089698150340189
19427546 62 18409731776493886237
19591789 44 18122350081710821790
19930381 70 17977105656891923169
20028762 73 18127968607419523351
20511986 3 17630307667984237745
21033648 29 18263071150354371732
21197605 99 18341339959361650687
21796203 349 17474701367331288331
22182313 1 18058462066043306260
23558518 356 17899698148268581864
23559900 14 18343299258859191008
3298306 158 18044938961647251221
338550 245 18335427897812206941
463206 1 16679788433634730397
469060 322 17313101977953674071
5309563 4 17617942431052076267
653340 110 18124872610698706712
9777508 108 18339359798389750304

> <PUBCHEM_SHAPE_MULTIPOLES>
561.59
9.05
6.22
1.13
0.93
7.09
0.31
-7.82
0.25
1.6
1.03
0.54
0.17
1.02

> <PUBCHEM_SHAPE_SELFOVERLAP>
1201.325

> <PUBCHEM_SHAPE_VOLUME>
311.8

> <RelativeEnergy>
13.9888

> <StereoisomerIndex>
1

> <TautomerIndex>
2

> <POSE_NUMBER>
4

> <LibDockScore>
101.8554

> <HotSpots>
14.01,6.27,-5.46,P,57,6
9.21,3.67,-12.86,A,26,16
11.21,4.87,-14.65,A,18,22

> <-In-Situ Starting Energy>
-241.406956

> <-In-Situ Final Energy>
16.825035

> <In-Situ Gradient>
0.0008891061928

> <Favorable Total>
14

> <Unfavorable Total>
0

> <Charge Total>
0

> <Hydrophobic Total>
10

> <HydrogenBond Total>
4

> <Other Total>
0

> <Favorable A:LYS6>
0

> <Favorable A:ARG55>
0

> <Favorable A:LEU58>
0

> <Favorable A:LEU61>
0

> <Favorable A:ILE62>
0

> <Favorable A:GLY64>
0

> <Favorable A:SER65>
0

> <Favorable A:TRP66>
0

> <Favorable A:SER69>
0

> <Favorable A:VAL70>
0

> <Favorable A:PRO73>
0

> <Favorable A:ALA74>
0

> <Favorable A:PHE76>
2

> <Favorable A:ALA77>
0

> <Favorable A:THR78>
0

> <Favorable A:GLU79>
0

> <Favorable A:PHE82>
1

> <Favorable A:ARG83>
0

> <Favorable A:LEU85>
1

> <Favorable A:THR86>
0

> <Favorable A:TRP89>
2

> <Favorable A:THR90>
0

> <Favorable A:ASN93>
0

> <Favorable A:HIS94>
0

> <Favorable A:SER96>
0

> <Favorable A:VAL97>
0

> <Favorable A:TRP98>
0

> <Favorable A:PHE140>
0

> <Favorable A:LEU141>
0

> <Favorable A:ASN144>
0

> <Favorable A:ILE148>
0

> <Favorable A:ILE150>
0

> <Favorable A:HIS151>
0

> <Favorable A:ILE152>
0

> <Favorable A:ALA154>
0

> <Favorable A:SER155>
0

> <Favorable A:ILE156>
0

> <Favorable A:GLY158>
0

> <Favorable A:TYR159>
0

> <Favorable A:ARG160>
0

> <Favorable A:ARG161>
0

> <Favorable A:ASN162>
0

> <Favorable A:LYS163>
0

> <Favorable A:SER167>
0

> <Favorable A:ASP168>
0

> <Favorable A:SER169>
0

> <Favorable A:ASN171>
0

> <Favorable A:PHE172>
0

> <Favorable A:THR173>
0

> <Favorable A:ARG174>
0

> <Favorable A:PHE175>
0

> <Favorable A:SER176>
0

> <Favorable A:SER177>
0

> <Favorable A:LEU178>
0

> <Favorable A:ILE179>
0

> <Favorable A:VAL180>
3

> <Favorable A:LEU181>
0

> <Favorable A:SER183>
1

> <Favorable A:THR184>
0

> <Favorable A:PHE186>
0

> <Favorable A:ILE187>
0

> <Favorable A:PHE188>
0

> <Favorable A:ILE189>
0

> <Favorable A:PRO190>
0

> <Favorable A:PHE191>
0

> <Favorable A:TYR240>
0

> <Favorable A:PHE243>
0

> <Favorable A:SER244>
0

> <Favorable A:PHE247>
1

> <Favorable A:PHE248>
0

> <Favorable A:VAL251>
1

> <Favorable A:TRP252>
0

> <Favorable A:SER254>
2

> <Favorable A:GLU255>
0

> <Favorable A:ARG256>
0

> <Favorable A:LEU257>
0

> <Favorable A:GLU258>
0

> <Favorable A:GLU259>
0

> <Favorable A:LEU261>
0

> <Favorable A:ILE262>
0

> <Favorable A:ILE263>
0

> <Favorable A:SER265>
0

> <Favorable A:GLN266>
0

> <Favorable A:MET268>
0

> <Favorable A:GLY269>
0

> <Favorable A:TYR272>
0

> <Favorable A:PRO273>
0

> <Unfavorable A:ARG55>
0

> <Unfavorable A:PRO73>
0

> <Unfavorable A:PHE76>
0

> <Unfavorable A:GLU79>
0

> <Unfavorable A:ARG83>
0

> <Unfavorable A:THR86>
0

> <Unfavorable A:TRP89>
0

> <Unfavorable A:THR90>
0

> <Unfavorable A:ASN93>
0

> <Unfavorable A:TRP98>
0

> <Unfavorable A:ASN144>
0

> <Unfavorable A:SER155>
0

> <Unfavorable A:GLY158>
0

> <Unfavorable A:TYR159>
0

> <Unfavorable A:ASN162>
0

> <Unfavorable A:ASP168>
0

> <Unfavorable A:ASN171>
0

> <Unfavorable A:THR173>
0

> <Unfavorable A:ARG174>
0

> <Unfavorable A:SER183>
0

> <Unfavorable A:THR184>
0

> <Unfavorable A:PHE186>
0

> <Unfavorable A:SER244>
0

> <Unfavorable A:SER254>
0

> <Unfavorable A:GLU255>
0

> <Unfavorable A:SER265>
0

> <Unfavorable A:GLN266>
0

> <Unfavorable A:GLY269>
0

> <Charge A:ARG55>
0

> <Charge A:PHE76>
0

> <Charge A:GLU79>
0

> <Charge A:PHE82>
0

> <Charge A:ARG83>
0

> <Charge A:TRP89>
0

> <Charge A:HIS94>
0

> <Charge A:TRP98>
0

> <Charge A:TYR159>
0

> <Charge A:ARG161>
0

> <Charge A:LYS163>
0

> <Charge A:ASP168>
0

> <Charge A:PHE172>
0

> <Charge A:ARG174>
0

> <Charge A:PHE175>
0

> <Charge A:PHE188>
0

> <Charge A:PHE247>
0

> <Charge A:PHE248>
0

> <Hydrophobic A:LEU58>
0

> <Hydrophobic A:LEU61>
0

> <Hydrophobic A:ILE62>
0

> <Hydrophobic A:TRP66>
0

> <Hydrophobic A:VAL70>
0

> <Hydrophobic A:PRO73>
0

> <Hydrophobic A:ALA74>
0

> <Hydrophobic A:PHE76>
2

> <Hydrophobic A:ALA77>
0

> <Hydrophobic A:THR78>
0

> <Hydrophobic A:PHE82>
1

> <Hydrophobic A:ARG83>
0

> <Hydrophobic A:LEU85>
1

> <Hydrophobic A:TRP89>
2

> <Hydrophobic A:THR90>
0

> <Hydrophobic A:ASN93>
0

> <Hydrophobic A:HIS94>
0

> <Hydrophobic A:VAL97>
0

> <Hydrophobic A:TRP98>
0

> <Hydrophobic A:PHE140>
0

> <Hydrophobic A:LEU141>
0

> <Hydrophobic A:ILE148>
0

> <Hydrophobic A:ILE150>
0

> <Hydrophobic A:HIS151>
0

> <Hydrophobic A:ILE152>
0

> <Hydrophobic A:ALA154>
0

> <Hydrophobic A:SER155>
0

> <Hydrophobic A:ILE156>
0

> <Hydrophobic A:GLY158>
0

> <Hydrophobic A:TYR159>
0

> <Hydrophobic A:ARG160>
0

> <Hydrophobic A:ARG161>
0

> <Hydrophobic A:ASP168>
0

> <Hydrophobic A:ASN171>
0

> <Hydrophobic A:PHE172>
0

> <Hydrophobic A:ARG174>
0

> <Hydrophobic A:PHE175>
0

> <Hydrophobic A:LEU178>
0

> <Hydrophobic A:ILE179>
0

> <Hydrophobic A:VAL180>
2

> <Hydrophobic A:LEU181>
0

> <Hydrophobic A:PHE186>
0

> <Hydrophobic A:ILE187>
0

> <Hydrophobic A:PHE188>
0

> <Hydrophobic A:ILE189>
0

> <Hydrophobic A:PRO190>
0

> <Hydrophobic A:PHE191>
0

> <Hydrophobic A:TYR240>
0

> <Hydrophobic A:PHE243>
0

> <Hydrophobic A:PHE247>
1

> <Hydrophobic A:PHE248>
0

> <Hydrophobic A:VAL251>
1

> <Hydrophobic A:TRP252>
0

> <Hydrophobic A:SER254>
0

> <Hydrophobic A:LEU261>
0

> <Hydrophobic A:ILE262>
0

> <Hydrophobic A:ILE263>
0

> <Hydrophobic A:TYR272>
0

> <Hydrophobic A:PRO273>
0

> <HydrogenBond A:LYS6>
0

> <HydrogenBond A:ARG55>
0

> <HydrogenBond A:GLY64>
0

> <HydrogenBond A:SER65>
0

> <HydrogenBond A:TRP66>
0

> <HydrogenBond A:SER69>
0

> <HydrogenBond A:PRO73>
0

> <HydrogenBond A:ALA74>
0

> <HydrogenBond A:PHE76>
0

> <HydrogenBond A:ALA77>
0

> <HydrogenBond A:THR78>
0

> <HydrogenBond A:GLU79>
0

> <HydrogenBond A:PHE82>
0

> <HydrogenBond A:ARG83>
0

> <HydrogenBond A:LEU85>
0

> <HydrogenBond A:THR86>
0

> <HydrogenBond A:TRP89>
0

> <HydrogenBond A:THR90>
0

> <HydrogenBond A:ASN93>
0

> <HydrogenBond A:HIS94>
0

> <HydrogenBond A:SER96>
0

> <HydrogenBond A:TRP98>
0

> <HydrogenBond A:ASN144>
0

> <HydrogenBond A:HIS151>
0

> <HydrogenBond A:ILE152>
0

> <HydrogenBond A:ALA154>
0

> <HydrogenBond A:SER155>
0

> <HydrogenBond A:ILE156>
0

> <HydrogenBond A:GLY158>
0

> <HydrogenBond A:TYR159>
0

> <HydrogenBond A:ASN162>
0

> <HydrogenBond A:LYS163>
0

> <HydrogenBond A:SER167>
0

> <HydrogenBond A:ASP168>
0

> <HydrogenBond A:SER169>
0

> <HydrogenBond A:ASN171>
0

> <HydrogenBond A:PHE172>
0

> <HydrogenBond A:THR173>
0

> <HydrogenBond A:ARG174>
0

> <HydrogenBond A:PHE175>
0

> <HydrogenBond A:SER176>
0

> <HydrogenBond A:SER177>
0

> <HydrogenBond A:ILE179>
0

> <HydrogenBond A:VAL180>
1

> <HydrogenBond A:SER183>
1

> <HydrogenBond A:THR184>
0

> <HydrogenBond A:PHE186>
0

> <HydrogenBond A:ILE187>
0

> <HydrogenBond A:PRO190>
0

> <HydrogenBond A:TYR240>
0

> <HydrogenBond A:PHE243>
0

> <HydrogenBond A:SER244>
0

> <HydrogenBond A:PHE247>
0

> <HydrogenBond A:VAL251>
0

> <HydrogenBond A:SER254>
2

> <HydrogenBond A:GLU255>
0

> <HydrogenBond A:ARG256>
0

> <HydrogenBond A:LEU257>
0

> <HydrogenBond A:GLU258>
0

> <HydrogenBond A:GLU259>
0

> <HydrogenBond A:ILE262>
0

> <HydrogenBond A:SER265>
0

> <HydrogenBond A:GLN266>
0

> <HydrogenBond A:MET268>
0

> <HydrogenBond A:GLY269>
0

> <HydrogenBond A:PRO273>
0

> <Other A:SER69>
0

> <Other A:TRP89>
0

> <Other A:TYR159>
0

> <Other A:PHE172>
0

> <Other A:SER176>
0

> <Other A:SER265>
0

$$$$
122363514
  SciTegic09122300493D

 54 55  0  0  0  0            999 V2000
   11.5629    5.2225  -13.1969 O   0  0  0  1  0  0
   14.8825    4.2936  -11.6106 O   0  0  0  1  0  0
   12.3755    4.4450   -7.6761 O   0  0  0  1  0  0
   16.2690    1.6005   -7.9256 O   0  0  0  1  0  0
   16.8427    2.7344  -12.0092 O   0  0  0  1  0  0
   21.7370   -3.7299   -9.9413 O   0  0  0  1  0  0
   11.1066    4.2584  -12.2618 C   0  0  0  1  0  0
   11.2102    4.8815  -10.8534 C   0  0  0  1  0  0
   12.5761    5.3621  -10.3122 C   0  0  0  1  0  0
   11.9128    2.9559  -12.3779 C   0  0  0  1  0  0
    9.6167    3.9788  -12.5337 C   0  0  0  1  0  0
   13.4957    4.2986   -9.7431 C   0  0  0  1  0  0
   14.6647    3.8117  -10.5368 C   0  0  0  1  0  0
   13.3886    3.9281   -8.4486 C   0  0  0  1  0  0
   15.5957    2.7852   -9.9549 C   0  0  0  1  0  0
   14.3373    2.9639   -7.8495 C   0  0  0  1  0  0
   15.3801    2.4296   -8.5272 C   0  0  0  1  0  0
   11.5991    4.8531  -14.5681 C   0  0  0  1  0  0
   16.5714    2.2555  -10.7504 C   0  0  0  1  0  0
   17.4429    1.1193  -10.3770 C   0  0  0  1  0  0
   16.1380    1.2461   -6.5605 C   0  0  0  1  0  0
   18.7006    0.9527  -10.8402 C   0  0  0  1  0  0
   19.5450   -0.2159  -10.5235 C   0  0  0  1  0  0
   20.5575   -0.5837  -11.4058 C   0  0  0  1  0  0
   19.3468   -0.9785   -9.3727 C   0  0  0  1  0  0
   21.2986   -1.7403  -11.1871 C   0  0  0  1  0  0
   20.0871   -2.1392   -9.1585 C   0  0  0  1  0  0
   21.0414   -2.5420  -10.0847 C   0  0  0  1  0  0
   12.3777    4.1595   -6.7745 H   0  0
   16.3409    3.5239  -12.1940 H   0  0
   21.1950   -4.4235   -9.5665 H   0  0
   10.5458    5.7461  -10.8386 H   0  0
   10.7826    4.1916  -10.1242 H   0  0
   12.3467    6.0598   -9.5061 H   0  0
   13.1045    5.9653  -11.0505 H   0  0
   12.9746    3.1580  -12.4800 H   0  0
   11.6192    2.3860  -13.2594 H   0  0
   11.7624    2.3151  -11.5089 H   0  0
    9.4596    3.4373  -13.4653 H   0  0
    9.0520    4.9089  -12.5918 H   0  0
    9.1801    3.3738  -11.7390 H   0  0
   14.1831    2.6985   -6.8221 H   0  0
   10.6290    4.5039  -14.9141 H   0  0
   12.3409    4.0737  -14.7405 H   0  0
   11.8646    5.7089  -15.1890 H   0  0
   17.0068    0.3898   -9.7244 H   0  0
   15.1867    0.7463   -6.3725 H   0  0
   16.2343    2.1223   -5.9172 H   0  0
   16.9286    0.5477   -6.2949 H   0  0
   19.1110    1.6927  -11.5039 H   0  0
   20.7522    0.0070  -12.2892 H   0  0
   18.6075   -0.6894   -8.6405 H   0  0
   22.0616   -2.0390  -11.8896 H   0  0
   19.9095   -2.7234   -8.2690 H   0  0
  1  7  1  0
  1 18  1  0
  2 13  2  0
  3 14  1  0
  4 17  1  0
  4 21  1  0
  5 19  1  0
  6 28  1  0
  7  8  1  0
  7 10  1  0
  7 11  1  0
  8  9  1  0
  9 12  1  0
 12 13  1  0
 12 14  2  0
 13 15  1  0
 14 16  1  0
 15 17  1  0
 15 19  2  0
 16 17  2  0
 19 20  1  0
 20 22  2  0
 22 23  1  0
 23 24  2  0
 23 25  1  0
 24 26  1  0
 25 27  2  0
 26 28  2  0
 27 28  1  0
  3 29  1  0
  5 30  1  0
  6 31  1  0
  8 32  1  0
  8 33  1  0
  9 34  1  0
  9 35  1  0
 10 36  1  0
 10 37  1  0
 10 38  1  0
 11 39  1  0
 11 40  1  0
 11 41  1  0
 16 42  1  0
 18 43  1  0
 18 44  1  0
 18 45  1  0
 20 46  1  0
 21 47  1  0
 21 48  1  0
 21 49  1  0
 22 50  1  0
 24 51  1  0
 25 52  1  0
 26 53  1  0
 27 54  1  0
M  END
> <Name>
122363514

> <Binding Energy>
-72.1558

> <Ligand Energy>
44.7107

> <Protein Energy>
-7801.1566

> <Complex Energy>
-7828.6017

> <Complex Entropy>
-31.4864

> <Protein Entropy>
-31.4717

> <Ligand Entropy>
-20.261

> <Entropic Energy>
20.2463

> <AbsoluteEnergy>
66.8216

> <ConfNumber>
5

> <Ionization pH>
7.5

> <IonizationIndex>
1

> <MOL_NUMBER>
641

> <NumberOfIonizations>
1

> <NumberOfStereoisomers>
1

> <NumberOfTautomers>
4

> <PUBCHEM_ATOM_DEF_STEREO_COUNT>
0

> <PUBCHEM_ATOM_UDEF_STEREO_COUNT>
0

> <PUBCHEM_BOND_DEF_STEREO_COUNT>
1

> <PUBCHEM_BOND_UDEF_STEREO_COUNT>
0

> <PUBCHEM_CACTVS_TAUTO_COUNT>
292

> <PUBCHEM_COMPONENT_COUNT>
1

> <PUBCHEM_COMPOUND_CID>
122363514

> <PUBCHEM_CONFORMER_DIVERSEORDER>
5
24
64
17
14
45
83
61
50
49
71
53
12
69
74
65
48
22
16
41
32
34
47
57
21
37
20
7
46
59
39
77
15
44
29
72
31
75
4
51
78
36
11
6
54
55
79
26
76
56
52
42
23
68
66
19
18
10
43
9
38
25
62
82
33
8
13
60
30
40
58
81
80
28
3
67
1
73
27
2
35
63
70

> <PUBCHEM_CONFORMER_ID>
074B1E7A00000005

> <PUBCHEM_CONFORMER_RMSD>
1

> <PUBCHEM_COORDINATE_TYPE>
2
5
10

> <PUBCHEM_EFFECTIVE_ROTOR_COUNT>
8

> <PUBCHEM_FEATURE_SELFOVERLAP>
45.673

> <PUBCHEM_HEAVY_ATOM_COUNT>
28

> <PUBCHEM_ISOTOPIC_ATOM_COUNT>
0

> <PUBCHEM_MMFF94_ENERGY>
107.844

> <PUBCHEM_MMFF94_PARTIAL_CHARGES>
35
1 -0.56
12 -0.14
13 0.08
14 0.08
15 0.09
16 -0.15
17 0.08
18 0.28
19 0.47
2 -0.53
20 -0.14
21 0.28
22 -0.18
23 0.03
24 -0.15
25 -0.15
26 -0.15
27 -0.15
28 0.08
3 -0.53
39 0.15
4 -0.36
43 0.45
44 0.45
45 0.15
49 0.15
5 -0.57
50 0.15
51 0.15
52 0.15
53 0.15
54 0.45
6 -0.53
7 0.28
9 0.14

> <PUBCHEM_PHARMACOPHORE_FEATURES>
9
1 1 acceptor
1 2 donor
1 3 donor
1 4 acceptor
1 5 acceptor
1 6 donor
3 7 10 11 hydrophobe
6 12 13 14 15 16 17 rings
6 23 24 25 26 27 28 rings

> <PUBCHEM_SHAPE_FINGERPRINT>
10076449 9 18339654390750691806
10669705 162 18268984303066855543
10981352 41 18339355374785048899
11135609 12 18335691767765463360
11456790 92 18272382971429477065
117089 54 17982739571722271246
12035758 1 18130494289424956338
12107183 9 18270974436483098041
12422481 6 17060338466252365348
12516196 113 18411138021753223567
12623949 98 18412270561716234830
13402501 40 18335140877727372335
13533116 47 18202283649273728947
13540713 4 18264467564491798804
13631057 29 18189055309507007010
13673619 4 18113902671756541231
13685833 64 18410855455881024546
13782708 43 18334852801322156671
13911852 28 18341328925036389847
14068700 675 17967817119872546220
14251764 30 18408324384651373335
14341114 176 18341896337745596665
14556957 393 14201672014331078159
14866123 147 18052822438480609625
15475509 84 17561085782673650601
15927050 60 17909550902266795654
17909252 39 18411136888388175626
20165401 70 18268431425076480615
20554085 129 11963677780771796964
21033650 10 16515960359952787197
21049683 271 18409733980772049300
21130935 74 18121508110373340667
21682296 61 18335423500314568547
21716022 299 18115325469378006340
23559900 14 18041839640580335797
2747138 104 18271522014627195210
2838139 119 9439111031746180370
3004659 81 17240202157766107423
3089732 80 18408606945991598375
329604 57 18335422323181942582
3421961 26 18413387665582724176
437815 12 18409167706054452495
465052 167 18342742918316983302
5104073 3 18202567272082715281
5309563 4 18340769256158687031
56633871 153 18272365412796536015
636775 8 18339648816231866638
6697151 62 18268123462771964573
7918774 8 18340494369830600646
7970288 3 18411419479692671743
8863177 126 18335421313485248339

> <PUBCHEM_SHAPE_MULTIPOLES>
541.01
17.81
4.38
1.26
12.67
2.74
0.14
-22.15
-2.95
-1.9
-0.75
-0.25
0.04
2.76

> <PUBCHEM_SHAPE_SELFOVERLAP>
1143.578

> <PUBCHEM_SHAPE_VOLUME>
304.2

> <RelativeEnergy>
4.2294

> <StereoisomerIndex>
1

> <TautomerIndex>
3

> <POSE_NUMBER>
1

> <LibDockScore>
90.7229

> <HotSpots>
21.61,-3.53,-8.86,P,36,6
9.21,3.67,-12.86,A,26,11
11.21,4.87,-14.65,A,18,18

> <-In-Situ Starting Energy>
-2585.27267

> <-In-Situ Final Energy>
9.23153964

> <In-Situ Gradient>
0.0009459607711

> <Favorable Total>
10

> <Unfavorable Total>
0

> <Charge Total>
0

> <Hydrophobic Total>
5

> <HydrogenBond Total>
5

> <Other Total>
0

> <Favorable A:LYS6>
0

> <Favorable A:ARG55>
0

> <Favorable A:LEU58>
0

> <Favorable A:LEU61>
0

> <Favorable A:ILE62>
0

> <Favorable A:GLY64>
0

> <Favorable A:SER65>
0

> <Favorable A:TRP66>
0

> <Favorable A:SER69>
0

> <Favorable A:VAL70>
0

> <Favorable A:PRO73>
0

> <Favorable A:ALA74>
0

> <Favorable A:PHE76>
0

> <Favorable A:ALA77>
0

> <Favorable A:THR78>
0

> <Favorable A:GLU79>
0

> <Favorable A:PHE82>
1

> <Favorable A:ARG83>
0

> <Favorable A:LEU85>
1

> <Favorable A:THR86>
2

> <Favorable A:TRP89>
2

> <Favorable A:THR90>
0

> <Favorable A:ASN93>
0

> <Favorable A:HIS94>
0

> <Favorable A:SER96>
0

> <Favorable A:VAL97>
0

> <Favorable A:TRP98>
0

> <Favorable A:PHE140>
0

> <Favorable A:LEU141>
0

> <Favorable A:ASN144>
0

> <Favorable A:ILE148>
0

> <Favorable A:ILE150>
0

> <Favorable A:HIS151>
0

> <Favorable A:ILE152>
0

> <Favorable A:ALA154>
0

> <Favorable A:SER155>
0

> <Favorable A:ILE156>
0

> <Favorable A:GLY158>
0

> <Favorable A:TYR159>
0

> <Favorable A:ARG160>
0

> <Favorable A:ARG161>
0

> <Favorable A:ASN162>
0

> <Favorable A:LYS163>
0

> <Favorable A:SER167>
0

> <Favorable A:ASP168>
0

> <Favorable A:SER169>
0

> <Favorable A:ASN171>
0

> <Favorable A:PHE172>
0

> <Favorable A:THR173>
0

> <Favorable A:ARG174>
0

> <Favorable A:PHE175>
0

> <Favorable A:SER176>
0

> <Favorable A:SER177>
0

> <Favorable A:LEU178>
0

> <Favorable A:ILE179>
0

> <Favorable A:VAL180>
1

> <Favorable A:LEU181>
0

> <Favorable A:SER183>
0

> <Favorable A:THR184>
0

> <Favorable A:PHE186>
0

> <Favorable A:ILE187>
0

> <Favorable A:PHE188>
0

> <Favorable A:ILE189>
0

> <Favorable A:PRO190>
0

> <Favorable A:PHE191>
0

> <Favorable A:TYR240>
0

> <Favorable A:PHE243>
0

> <Favorable A:SER244>
0

> <Favorable A:PHE247>
0

> <Favorable A:PHE248>
0

> <Favorable A:VAL251>
0

> <Favorable A:TRP252>
0

> <Favorable A:SER254>
1

> <Favorable A:GLU255>
0

> <Favorable A:ARG256>
0

> <Favorable A:LEU257>
0

> <Favorable A:GLU258>
1

> <Favorable A:GLU259>
0

> <Favorable A:LEU261>
0

> <Favorable A:ILE262>
1

> <Favorable A:ILE263>
0

> <Favorable A:SER265>
0

> <Favorable A:GLN266>
0

> <Favorable A:MET268>
0

> <Favorable A:GLY269>
0

> <Favorable A:TYR272>
0

> <Favorable A:PRO273>
0

> <Unfavorable A:ARG55>
0

> <Unfavorable A:PRO73>
0

> <Unfavorable A:PHE76>
0

> <Unfavorable A:GLU79>
0

> <Unfavorable A:ARG83>
0

> <Unfavorable A:THR86>
0

> <Unfavorable A:TRP89>
0

> <Unfavorable A:THR90>
0

> <Unfavorable A:ASN93>
0

> <Unfavorable A:TRP98>
0

> <Unfavorable A:ASN144>
0

> <Unfavorable A:SER155>
0

> <Unfavorable A:GLY158>
0

> <Unfavorable A:TYR159>
0

> <Unfavorable A:ASN162>
0

> <Unfavorable A:ASP168>
0

> <Unfavorable A:ASN171>
0

> <Unfavorable A:THR173>
0

> <Unfavorable A:ARG174>
0

> <Unfavorable A:SER183>
0

> <Unfavorable A:THR184>
0

> <Unfavorable A:PHE186>
0

> <Unfavorable A:SER244>
0

> <Unfavorable A:SER254>
0

> <Unfavorable A:GLU255>
0

> <Unfavorable A:SER265>
0

> <Unfavorable A:GLN266>
0

> <Unfavorable A:GLY269>
0

> <Charge A:ARG55>
0

> <Charge A:PHE76>
0

> <Charge A:GLU79>
0

> <Charge A:PHE82>
0

> <Charge A:ARG83>
0

> <Charge A:TRP89>
0

> <Charge A:HIS94>
0

> <Charge A:TRP98>
0

> <Charge A:TYR159>
0

> <Charge A:ARG161>
0

> <Charge A:LYS163>
0

> <Charge A:ASP168>
0

> <Charge A:PHE172>
0

> <Charge A:ARG174>
0

> <Charge A:PHE175>
0

> <Charge A:PHE188>
0

> <Charge A:PHE247>
0

> <Charge A:PHE248>
0

> <Hydrophobic A:LEU58>
0

> <Hydrophobic A:LEU61>
0

> <Hydrophobic A:ILE62>
0

> <Hydrophobic A:TRP66>
0

> <Hydrophobic A:VAL70>
0

> <Hydrophobic A:PRO73>
0

> <Hydrophobic A:ALA74>
0

> <Hydrophobic A:PHE76>
0

> <Hydrophobic A:ALA77>
0

> <Hydrophobic A:THR78>
0

> <Hydrophobic A:PHE82>
0

> <Hydrophobic A:ARG83>
0

> <Hydrophobic A:LEU85>
1

> <Hydrophobic A:TRP89>
2

> <Hydrophobic A:THR90>
0

> <Hydrophobic A:ASN93>
0

> <Hydrophobic A:HIS94>
0

> <Hydrophobic A:VAL97>
0

> <Hydrophobic A:TRP98>
0

> <Hydrophobic A:PHE140>
0

> <Hydrophobic A:LEU141>
0

> <Hydrophobic A:ILE148>
0

> <Hydrophobic A:ILE150>
0

> <Hydrophobic A:HIS151>
0

> <Hydrophobic A:ILE152>
0

> <Hydrophobic A:ALA154>
0

> <Hydrophobic A:SER155>
0

> <Hydrophobic A:ILE156>
0

> <Hydrophobic A:GLY158>
0

> <Hydrophobic A:TYR159>
0

> <Hydrophobic A:ARG160>
0

> <Hydrophobic A:ARG161>
0

> <Hydrophobic A:ASP168>
0

> <Hydrophobic A:ASN171>
0

> <Hydrophobic A:PHE172>
0

> <Hydrophobic A:ARG174>
0

> <Hydrophobic A:PHE175>
0

> <Hydrophobic A:LEU178>
0

> <Hydrophobic A:ILE179>
0

> <Hydrophobic A:VAL180>
1

> <Hydrophobic A:LEU181>
0

> <Hydrophobic A:PHE186>
0

> <Hydrophobic A:ILE187>
0

> <Hydrophobic A:PHE188>
0

> <Hydrophobic A:ILE189>
0

> <Hydrophobic A:PRO190>
0

> <Hydrophobic A:PHE191>
0

> <Hydrophobic A:TYR240>
0

> <Hydrophobic A:PHE243>
0

> <Hydrophobic A:PHE247>
0

> <Hydrophobic A:PHE248>
0

> <Hydrophobic A:VAL251>
0

> <Hydrophobic A:TRP252>
0

> <Hydrophobic A:SER254>
0

> <Hydrophobic A:LEU261>
0

> <Hydrophobic A:ILE262>
1

> <Hydrophobic A:ILE263>
0

> <Hydrophobic A:TYR272>
0

> <Hydrophobic A:PRO273>
0

> <HydrogenBond A:LYS6>
0

> <HydrogenBond A:ARG55>
0

> <HydrogenBond A:GLY64>
0

> <HydrogenBond A:SER65>
0

> <HydrogenBond A:TRP66>
0

> <HydrogenBond A:SER69>
0

> <HydrogenBond A:PRO73>
0

> <HydrogenBond A:ALA74>
0

> <HydrogenBond A:PHE76>
0

> <HydrogenBond A:ALA77>
0

> <HydrogenBond A:THR78>
0

> <HydrogenBond A:GLU79>
0

> <HydrogenBond A:PHE82>
1

> <HydrogenBond A:ARG83>
0

> <HydrogenBond A:LEU85>
0

> <HydrogenBond A:THR86>
2

> <HydrogenBond A:TRP89>
0

> <HydrogenBond A:THR90>
0

> <HydrogenBond A:ASN93>
0

> <HydrogenBond A:HIS94>
0

> <HydrogenBond A:SER96>
0

> <HydrogenBond A:TRP98>
0

> <HydrogenBond A:ASN144>
0

> <HydrogenBond A:HIS151>
0

> <HydrogenBond A:ILE152>
0

> <HydrogenBond A:ALA154>
0

> <HydrogenBond A:SER155>
0

> <HydrogenBond A:ILE156>
0

> <HydrogenBond A:GLY158>
0

> <HydrogenBond A:TYR159>
0

> <HydrogenBond A:ASN162>
0

> <HydrogenBond A:LYS163>
0

> <HydrogenBond A:SER167>
0

> <HydrogenBond A:ASP168>
0

> <HydrogenBond A:SER169>
0

> <HydrogenBond A:ASN171>
0

> <HydrogenBond A:PHE172>
0

> <HydrogenBond A:THR173>
0

> <HydrogenBond A:ARG174>
0

> <HydrogenBond A:PHE175>
0

> <HydrogenBond A:SER176>
0

> <HydrogenBond A:SER177>
0

> <HydrogenBond A:ILE179>
0

> <HydrogenBond A:VAL180>
0

> <HydrogenBond A:SER183>
0

> <HydrogenBond A:THR184>
0

> <HydrogenBond A:PHE186>
0

> <HydrogenBond A:ILE187>
0

> <HydrogenBond A:PRO190>
0

> <HydrogenBond A:TYR240>
0

> <HydrogenBond A:PHE243>
0

> <HydrogenBond A:SER244>
0

> <HydrogenBond A:PHE247>
0

> <HydrogenBond A:VAL251>
0

> <HydrogenBond A:SER254>
1

> <HydrogenBond A:GLU255>
0

> <HydrogenBond A:ARG256>
0

> <HydrogenBond A:LEU257>
0

> <HydrogenBond A:GLU258>
1

> <HydrogenBond A:GLU259>
0

> <HydrogenBond A:ILE262>
0

> <HydrogenBond A:SER265>
0

> <HydrogenBond A:GLN266>
0

> <HydrogenBond A:MET268>
0

> <HydrogenBond A:GLY269>
0

> <HydrogenBond A:PRO273>
0

> <Other A:SER69>
0

> <Other A:TRP89>
0

> <Other A:TYR159>
0

> <Other A:PHE172>
0

> <Other A:SER176>
0

> <Other A:SER265>
0

$$$$
122363515
  SciTegic09122300493D

 54 56  0  0  0  0            999 V2000
   14.1404    1.6120   -9.3410 O   0  0  0  1  0  0
   11.7189    5.1601  -13.5076 O   0  0  0  1  0  0
   14.1390    3.8937   -5.1091 O   0  0  0  1  0  0
   11.2442    5.3736   -8.6484 O   0  0  0  1  0  0
   16.1012    2.3150   -5.9204 O   0  0  0  1  0  0
    9.9522   -1.3748   -5.7029 O   0  0  0  1  0  0
   11.3477    4.0880  -12.6572 C   0  0  0  1  0  0
   12.1903    4.2906  -11.3858 C   0  0  0  1  0  0
   12.0163    3.1768  -10.3383 C   0  0  0  1  0  0
   12.6903    3.4851   -9.0202 C   0  0  0  1  0  0
   13.7276    2.6834   -8.5498 C   0  0  0  1  0  0
   14.5063    0.4782   -8.5790 C   0  0  1  1  0  0
   14.2862    2.9064   -7.2888 C   0  0  0  1  0  0
   15.7356    0.8456   -7.7348 C   0  0  0  1  0  0
   11.6538    2.7221  -13.3044 C   0  0  0  1  0  0
    9.8479    4.2321  -12.3511 C   0  0  0  1  0  0
   15.4316    2.0759   -6.8773 C   0  0  0  1  0  0
   12.2458    4.5328   -8.2197 C   0  0  0  1  0  0
   13.7257    3.8616   -6.4392 C   0  0  0  1  0  0
   13.2984   -0.0084   -7.7972 C   0  0  0  1  0  0
   12.7515    4.7179   -6.9456 C   0  0  0  1  0  0
   12.1193   -0.3170   -8.4723 C   0  0  0  1  0  0
   13.3132   -0.1265   -6.4086 C   0  0  0  1  0  0
   11.4950    5.0153  -14.8983 C   0  0  0  1  0  0
   10.9963   -0.7572   -7.7799 C   0  0  0  1  0  0
   12.1981   -0.5636   -5.7214 C   0  0  0  1  0  0
   11.0396   -0.8920   -6.4006 C   0  0  0  1  0  0
   13.4016    4.7062   -4.2222 C   0  0  0  1  0  0
   10.4412    4.8758   -8.7447 H   0  0
   10.2549   -2.0636   -5.1110 H   0  0
   11.9455    5.2641  -10.9625 H   0  0
   13.2432    4.3507  -11.6629 H   0  0
   10.9641    2.9711  -10.1514 H   0  0
   12.4072    2.2466  -10.7444 H   0  0
   14.7893   -0.3194   -9.2665 H   0  0
   16.5749    1.0920   -8.3844 H   0  0
   16.0597    0.0218   -7.0987 H   0  0
   12.7088    2.6397  -13.5665 H   0  0
   11.0672    2.5635  -14.2068 H   0  0
   11.4065    1.8954  -12.6399 H   0  0
    9.2517    4.2395  -13.2622 H   0  0
    9.6452    5.1601  -11.8197 H   0  0
    9.4808    3.4132  -11.7335 H   0  0
   12.3471    5.5280   -6.3593 H   0  0
   12.0783   -0.2126   -9.5462 H   0  0
   14.1973    0.0631   -5.8208 H   0  0
   10.4889    4.6576  -15.0937 H   0  0
   12.2048    4.3096  -15.3283 H   0  0
   11.6245    5.9679  -15.4087 H   0  0
   10.0941   -1.0090   -8.3146 H   0  0
   12.2913   -0.6930   -4.6566 H   0  0
   12.3278    4.5452   -4.3194 H   0  0
   13.6452    5.7567   -4.3728 H   0  0
   13.6681    4.4356   -3.2055 H   0  0
  1 11  1  0
  1 12  1  0
  2  7  1  0
  2 24  1  0
  3 19  1  0
  3 28  1  0
  4 18  1  0
  5 17  2  0
  6 27  1  0
  7  8  1  0
  7 15  1  0
  7 16  1  0
  8  9  1  0
  9 10  1  0
 10 11  2  0
 10 18  1  0
 11 13  1  0
 12 14  1  0
 12 20  1  0
 13 17  1  0
 13 19  2  0
 14 17  1  0
 18 21  2  0
 19 21  1  0
 20 22  2  0
 20 23  1  0
 22 25  1  0
 23 26  2  0
 25 27  2  0
 26 27  1  0
  4 29  1  0
  6 30  1  0
  8 31  1  0
  8 32  1  0
  9 33  1  0
  9 34  1  0
 12 35  1  0
 14 36  1  0
 14 37  1  0
 15 38  1  0
 15 39  1  0
 15 40  1  0
 16 41  1  0
 16 42  1  0
 16 43  1  0
 21 44  1  0
 22 45  1  0
 23 46  1  0
 24 47  1  0
 24 48  1  0
 24 49  1  0
 25 50  1  0
 26 51  1  0
 28 52  1  0
 28 53  1  0
 28 54  1  0
M  END
> <Name>
122363515

> <Binding Energy>
-54.6955

> <Ligand Energy>
14.6013

> <Protein Energy>
-7801.1566

> <Complex Energy>
-7841.2508

> <Complex Entropy>
-31.4847

> <Protein Entropy>
-31.4717

> <Ligand Entropy>
-20.0671

> <Entropic Energy>
20.0541

> <AbsoluteEnergy>
53.3642

> <ConfNumber>
15

> <Ionization pH>
7.5

> <IonizationIndex>
1

> <MOL_NUMBER>
643

> <NumberOfIonizations>
1

> <NumberOfStereoisomers>
1

> <NumberOfTautomers>
2

> <PUBCHEM_ATOM_DEF_STEREO_COUNT>
0

> <PUBCHEM_ATOM_UDEF_STEREO_COUNT>
1

> <PUBCHEM_BOND_DEF_STEREO_COUNT>
0

> <PUBCHEM_BOND_UDEF_STEREO_COUNT>
0

> <PUBCHEM_CACTVS_TAUTO_COUNT>
18

> <PUBCHEM_COMPONENT_COUNT>
1

> <PUBCHEM_COMPOUND_CID>
122363515

> <PUBCHEM_CONFORMER_DIVERSEORDER>
1
65
27
46
57
44
54
34
25
66
60
32
21
9
37
38
58
16
36
56
51
18
30
24
59
55
28
8
68
61
52
5
31
12
42
48
62
63
35
10
50
13
20
49
11
19
39
23
53
4
7
26
47
17
45
40
67
14
3
41
29
22
15
43
64
6
33
2

> <PUBCHEM_CONFORMER_ID>
074B1E7B00000001

> <PUBCHEM_CONFORMER_RMSD>
0.8

> <PUBCHEM_COORDINATE_TYPE>
2
5
10

> <PUBCHEM_EFFECTIVE_ROTOR_COUNT>
6.6

> <PUBCHEM_FEATURE_SELFOVERLAP>
50.788

> <PUBCHEM_HEAVY_ATOM_COUNT>
28

> <PUBCHEM_ISOTOPIC_ATOM_COUNT>
0

> <PUBCHEM_MMFF94_ENERGY>
101.3524

> <PUBCHEM_MMFF94_PARTIAL_CHARGES>
32
1 -0.36
10 -0.14
11 0.08
12 0.42
13 0.09
14 0.06
17 0.42
18 0.08
19 0.08
2 -0.56
20 -0.14
21 -0.15
22 -0.15
23 -0.15
24 0.28
25 -0.15
26 -0.15
27 0.08
28 0.28
3 -0.36
4 -0.53
42 0.15
43 0.15
44 0.15
48 0.45
49 0.15
5 -0.57
50 0.15
54 0.45
6 -0.53
7 0.28
9 0.14

> <PUBCHEM_PHARMACOPHORE_FEATURES>
10
1 1 acceptor
1 2 acceptor
1 3 acceptor
1 4 donor
1 5 acceptor
1 6 donor
3 7 15 16 hydrophobe
6 1 11 12 13 14 17 rings
6 10 11 13 18 19 21 rings
6 20 22 23 25 26 27 rings

> <PUBCHEM_SHAPE_FINGERPRINT>
10074138 170 18049690170471309376
10411042 1 17402049990270971079
10688039 33 17540814331562781163
1100329 8 18338514145341973834
114674 6 18193845846628811882
11578080 2 16843871178125775194
12236239 1 17632856404757041685
12422481 6 17974324116165436819
12553582 1 16320627437241775175
12788726 201 17543348710660990768
13140716 1 18412262805237354266
13540713 4 18057051409889238444
1361 2 18409448064508575289
13692114 37 18054773238316855671
138480 1 17689717463555217383
13911987 19 18118428183995878420
14790565 3 18195262030934031060
15483637 11 18266179612187534535
17138139 8 17771593980339762431
19427546 62 18410012173570903709
19591789 44 18266465295551252150
19930381 70 18121220870758564905
20028762 73 18200307697940685959
20511986 3 17630872829924846913
21033648 29 18335970995974021301
21049683 118 18194656319805449217
21197605 99 18341621460092464399
21421861 104 17399529922024300281
21796203 349 17618534002335658947
22182313 1 17986687072231956468
22311459 1 18411983521680570644
23558518 356 17827918752152553456
23559900 14 18343020008738888656
3178227 256 18193290601825620898
3298306 158 18117276952651465847
338550 245 18263087759419101533
350125 39 17763466514778652504
463206 1 16968581781235733981
5309563 4 17762056541101787767
653340 110 18052813942871443024
7399639 24 18188199893555481853
9777508 108 18267582601196737696
9981440 41 16696071591004814768

> <PUBCHEM_SHAPE_MULTIPOLES>
541.01
8.91
6.28
1.1
5.01
8.58
0.28
-8.19
0.28
-0.34
1.09
0.41
0.09
1.42

> <PUBCHEM_SHAPE_SELFOVERLAP>
1163.136

> <PUBCHEM_SHAPE_VOLUME>
298.9

> <RelativeEnergy>
4.40797

> <StereoisomerIndex>
1

> <TautomerIndex>
1

> <POSE_NUMBER>
9

> <LibDockScore>
111.7167

> <HotSpots>
8.61,-2.33,-5.66,P,54,6
9.21,3.67,-12.86,A,26,16
11.21,4.87,-14.65,A,18,24

> <-In-Situ Starting Energy>
-361.402025

> <-In-Situ Final Energy>
31.6380472

> <In-Situ Gradient>
0.0009746094287

> <Favorable Total>
9

> <Unfavorable Total>
0

> <Charge Total>
0

> <Hydrophobic Total>
5

> <HydrogenBond Total>
4

> <Other Total>
0

> <Favorable A:LYS6>
0

> <Favorable A:ARG55>
0

> <Favorable A:LEU58>
0

> <Favorable A:LEU61>
0

> <Favorable A:ILE62>
0

> <Favorable A:GLY64>
0

> <Favorable A:SER65>
0

> <Favorable A:TRP66>
0

> <Favorable A:SER69>
0

> <Favorable A:VAL70>
0

> <Favorable A:PRO73>
0

> <Favorable A:ALA74>
0

> <Favorable A:PHE76>
1

> <Favorable A:ALA77>
0

> <Favorable A:THR78>
0

> <Favorable A:GLU79>
0

> <Favorable A:PHE82>
1

> <Favorable A:ARG83>
0

> <Favorable A:LEU85>
1

> <Favorable A:THR86>
1

> <Favorable A:TRP89>
3

> <Favorable A:THR90>
0

> <Favorable A:ASN93>
0

> <Favorable A:HIS94>
0

> <Favorable A:SER96>
0

> <Favorable A:VAL97>
0

> <Favorable A:TRP98>
0

> <Favorable A:PHE140>
0

> <Favorable A:LEU141>
0

> <Favorable A:ASN144>
0

> <Favorable A:ILE148>
0

> <Favorable A:ILE150>
0

> <Favorable A:HIS151>
0

> <Favorable A:ILE152>
0

> <Favorable A:ALA154>
0

> <Favorable A:SER155>
0

> <Favorable A:ILE156>
0

> <Favorable A:GLY158>
0

> <Favorable A:TYR159>
0

> <Favorable A:ARG160>
0

> <Favorable A:ARG161>
0

> <Favorable A:ASN162>
0

> <Favorable A:LYS163>
0

> <Favorable A:SER167>
0

> <Favorable A:ASP168>
0

> <Favorable A:SER169>
0

> <Favorable A:ASN171>
0

> <Favorable A:PHE172>
0

> <Favorable A:THR173>
0

> <Favorable A:ARG174>
0

> <Favorable A:PHE175>
0

> <Favorable A:SER176>
0

> <Favorable A:SER177>
0

> <Favorable A:LEU178>
0

> <Favorable A:ILE179>
0

> <Favorable A:VAL180>
1

> <Favorable A:LEU181>
0

> <Favorable A:SER183>
0

> <Favorable A:THR184>
0

> <Favorable A:PHE186>
0

> <Favorable A:ILE187>
0

> <Favorable A:PHE188>
0

> <Favorable A:ILE189>
0

> <Favorable A:PRO190>
0

> <Favorable A:PHE191>
0

> <Favorable A:TYR240>
0

> <Favorable A:PHE243>
0

> <Favorable A:SER244>
0

> <Favorable A:PHE247>
0

> <Favorable A:PHE248>
0

> <Favorable A:VAL251>
0

> <Favorable A:TRP252>
0

> <Favorable A:SER254>
0

> <Favorable A:GLU255>
0

> <Favorable A:ARG256>
0

> <Favorable A:LEU257>
0

> <Favorable A:GLU258>
0

> <Favorable A:GLU259>
0

> <Favorable A:LEU261>
0

> <Favorable A:ILE262>
0

> <Favorable A:ILE263>
0

> <Favorable A:SER265>
1

> <Favorable A:GLN266>
0

> <Favorable A:MET268>
0

> <Favorable A:GLY269>
0

> <Favorable A:TYR272>
0

> <Favorable A:PRO273>
0

> <Unfavorable A:ARG55>
0

> <Unfavorable A:PRO73>
0

> <Unfavorable A:PHE76>
0

> <Unfavorable A:GLU79>
0

> <Unfavorable A:ARG83>
0

> <Unfavorable A:THR86>
0

> <Unfavorable A:TRP89>
0

> <Unfavorable A:THR90>
0

> <Unfavorable A:ASN93>
0

> <Unfavorable A:TRP98>
0

> <Unfavorable A:ASN144>
0

> <Unfavorable A:SER155>
0

> <Unfavorable A:GLY158>
0

> <Unfavorable A:TYR159>
0

> <Unfavorable A:ASN162>
0

> <Unfavorable A:ASP168>
0

> <Unfavorable A:ASN171>
0

> <Unfavorable A:THR173>
0

> <Unfavorable A:ARG174>
0

> <Unfavorable A:SER183>
0

> <Unfavorable A:THR184>
0

> <Unfavorable A:PHE186>
0

> <Unfavorable A:SER244>
0

> <Unfavorable A:SER254>
0

> <Unfavorable A:GLU255>
0

> <Unfavorable A:SER265>
0

> <Unfavorable A:GLN266>
0

> <Unfavorable A:GLY269>
0

> <Charge A:ARG55>
0

> <Charge A:PHE76>
0

> <Charge A:GLU79>
0

> <Charge A:PHE82>
0

> <Charge A:ARG83>
0

> <Charge A:TRP89>
0

> <Charge A:HIS94>
0

> <Charge A:TRP98>
0

> <Charge A:TYR159>
0

> <Charge A:ARG161>
0

> <Charge A:LYS163>
0

> <Charge A:ASP168>
0

> <Charge A:PHE172>
0

> <Charge A:ARG174>
0

> <Charge A:PHE175>
0

> <Charge A:PHE188>
0

> <Charge A:PHE247>
0

> <Charge A:PHE248>
0

> <Hydrophobic A:LEU58>
0

> <Hydrophobic A:LEU61>
0

> <Hydrophobic A:ILE62>
0

> <Hydrophobic A:TRP66>
0

> <Hydrophobic A:VAL70>
0

> <Hydrophobic A:PRO73>
0

> <Hydrophobic A:ALA74>
0

> <Hydrophobic A:PHE76>
1

> <Hydrophobic A:ALA77>
0

> <Hydrophobic A:THR78>
0

> <Hydrophobic A:PHE82>
0

> <Hydrophobic A:ARG83>
0

> <Hydrophobic A:LEU85>
1

> <Hydrophobic A:TRP89>
2

> <Hydrophobic A:THR90>
0

> <Hydrophobic A:ASN93>
0

> <Hydrophobic A:HIS94>
0

> <Hydrophobic A:VAL97>
0

> <Hydrophobic A:TRP98>
0

> <Hydrophobic A:PHE140>
0

> <Hydrophobic A:LEU141>
0

> <Hydrophobic A:ILE148>
0

> <Hydrophobic A:ILE150>
0

> <Hydrophobic A:HIS151>
0

> <Hydrophobic A:ILE152>
0

> <Hydrophobic A:ALA154>
0

> <Hydrophobic A:SER155>
0

> <Hydrophobic A:ILE156>
0

> <Hydrophobic A:GLY158>
0

> <Hydrophobic A:TYR159>
0

> <Hydrophobic A:ARG160>
0

> <Hydrophobic A:ARG161>
0

> <Hydrophobic A:ASP168>
0

> <Hydrophobic A:ASN171>
0

> <Hydrophobic A:PHE172>
0

> <Hydrophobic A:ARG174>
0

> <Hydrophobic A:PHE175>
0

> <Hydrophobic A:LEU178>
0

> <Hydrophobic A:ILE179>
0

> <Hydrophobic A:VAL180>
1

> <Hydrophobic A:LEU181>
0

> <Hydrophobic A:PHE186>
0

> <Hydrophobic A:ILE187>
0

> <Hydrophobic A:PHE188>
0

> <Hydrophobic A:ILE189>
0

> <Hydrophobic A:PRO190>
0

> <Hydrophobic A:PHE191>
0

> <Hydrophobic A:TYR240>
0

> <Hydrophobic A:PHE243>
0

> <Hydrophobic A:PHE247>
0

> <Hydrophobic A:PHE248>
0

> <Hydrophobic A:VAL251>
0

> <Hydrophobic A:TRP252>
0

> <Hydrophobic A:SER254>
0

> <Hydrophobic A:LEU261>
0

> <Hydrophobic A:ILE262>
0

> <Hydrophobic A:ILE263>
0

> <Hydrophobic A:TYR272>
0

> <Hydrophobic A:PRO273>
0

> <HydrogenBond A:LYS6>
0

> <HydrogenBond A:ARG55>
0

> <HydrogenBond A:GLY64>
0

> <HydrogenBond A:SER65>
0

> <HydrogenBond A:TRP66>
0

> <HydrogenBond A:SER69>
0

> <HydrogenBond A:PRO73>
0

> <HydrogenBond A:ALA74>
0

> <HydrogenBond A:PHE76>
0

> <HydrogenBond A:ALA77>
0

> <HydrogenBond A:THR78>
0

> <HydrogenBond A:GLU79>
0

> <HydrogenBond A:PHE82>
1

> <HydrogenBond A:ARG83>
0

> <HydrogenBond A:LEU85>
0

> <HydrogenBond A:THR86>
1

> <HydrogenBond A:TRP89>
1

> <HydrogenBond A:THR90>
0

> <HydrogenBond A:ASN93>
0

> <HydrogenBond A:HIS94>
0

> <HydrogenBond A:SER96>
0

> <HydrogenBond A:TRP98>
0

> <HydrogenBond A:ASN144>
0

> <HydrogenBond A:HIS151>
0

> <HydrogenBond A:ILE152>
0

> <HydrogenBond A:ALA154>
0

> <HydrogenBond A:SER155>
0

> <HydrogenBond A:ILE156>
0

> <HydrogenBond A:GLY158>
0

> <HydrogenBond A:TYR159>
0

> <HydrogenBond A:ASN162>
0

> <HydrogenBond A:LYS163>
0

> <HydrogenBond A:SER167>
0

> <HydrogenBond A:ASP168>
0

> <HydrogenBond A:SER169>
0

> <HydrogenBond A:ASN171>
0

> <HydrogenBond A:PHE172>
0

> <HydrogenBond A:THR173>
0

> <HydrogenBond A:ARG174>
0

> <HydrogenBond A:PHE175>
0

> <HydrogenBond A:SER176>
0

> <HydrogenBond A:SER177>
0

> <HydrogenBond A:ILE179>
0

> <HydrogenBond A:VAL180>
0

> <HydrogenBond A:SER183>
0

> <HydrogenBond A:THR184>
0

> <HydrogenBond A:PHE186>
0

> <HydrogenBond A:ILE187>
0

> <HydrogenBond A:PRO190>
0

> <HydrogenBond A:TYR240>
0

> <HydrogenBond A:PHE243>
0

> <HydrogenBond A:SER244>
0

> <HydrogenBond A:PHE247>
0

> <HydrogenBond A:VAL251>
0

> <HydrogenBond A:SER254>
0

> <HydrogenBond A:GLU255>
0

> <HydrogenBond A:ARG256>
0

> <HydrogenBond A:LEU257>
0

> <HydrogenBond A:GLU258>
0

> <HydrogenBond A:GLU259>
0

> <HydrogenBond A:ILE262>
0

> <HydrogenBond A:SER265>
1

> <HydrogenBond A:GLN266>
0

> <HydrogenBond A:MET268>
0

> <HydrogenBond A:GLY269>
0

> <HydrogenBond A:PRO273>
0

> <Other A:SER69>
0

> <Other A:TRP89>
0

> <Other A:TYR159>
0

> <Other A:PHE172>
0

> <Other A:SER176>
0

> <Other A:SER265>
0

$$$$
132515677
  SciTegic09122300493D

 47 48  0  0  0  0            999 V2000
   10.3150    2.1937  -12.6919 S   0  0  0  1  0  0
   11.5402    5.2169   -6.8943 S   0  0  0  1  0  0
   11.6820    5.5721  -12.2904 O   0  0  0  1  0  0
   14.2894    5.7516   -9.4164 O   0  5  0  1  0  0
   12.6750    7.1740   -9.1769 O   0  0  0  1  0  0
   13.9401    2.6949  -15.6578 O   0  0  0  1  0  0
   13.6570    2.5405  -12.8220 N   0  0  0  1  0  0
   12.4920    4.0679  -10.7551 N   0  0  0  1  0  0
   12.6830    3.5872  -13.1955 C   0  0  2  1  0  0
   13.2293    2.8253  -10.4244 C   0  0  0  1  0  0
   13.9092    2.1743  -11.5441 C   0  0  0  1  0  0
   12.2419    4.5096  -12.0328 C   0  0  0  1  0  0
   12.0621    4.9196   -9.6274 C   0  0  1  1  0  0
   11.4463    2.9703  -13.8614 C   0  0  0  1  0  0
   14.4536    1.7677  -13.6316 C   0  0  0  1  0  0
   14.8705    1.1051  -11.5035 C   0  0  0  1  0  0
   15.1836    0.8675  -12.8367 C   0  0  0  1  0  0
   11.8273    4.1403   -8.3147 C   0  0  0  1  0  0
   13.0911    6.0369   -9.3908 C   0  0  0  1  0  0
   14.5468    1.8473  -15.0138 C   0  0  0  1  0  0
    9.1196    3.5374  -12.5148 C   0  0  0  1  0  0
   13.2085    5.2286   -6.2232 C   0  0  0  1  0  0
    7.8238    3.2183  -13.2101 C   0  0  0  1  0  0
   13.2250    4.3824   -4.9839 C   0  0  0  1  0  0
    7.6700    2.3257  -14.1994 C   0  0  0  1  0  0
   13.3441    4.8629   -3.7365 C   0  0  0  1  0  0
   13.1627    4.2479  -13.9083 H   0  0
   13.9960    3.0549   -9.6840 H   0  0
   12.5405    2.1076   -9.9795 H   0  0
   11.1137    5.3976   -9.8849 H   0  0
   10.9105    3.7140  -14.4522 H   0  0
   11.7630    2.2024  -14.5603 H   0  0
   15.2633    0.5977  -10.6345 H   0  0
   15.8778    0.1174  -13.1876 H   0  0
   12.6580    3.4854   -8.0630 H   0  0
   10.9724    3.4786   -8.4375 H   0  0
   15.1996    1.1143  -15.4809 H   0  0
    8.9414    3.6542  -11.4490 H   0  0
    9.5155    4.4916  -12.8611 H   0  0
   13.9347    4.8740   -6.9522 H   0  0
   13.4794    6.2566   -6.0016 H   0  0
    6.9506    3.6895  -12.8013 H   0  0
   13.1909    3.3217   -5.1515 H   0  0
    8.5074    1.8237  -14.6462 H   0  0
    6.6949    2.0848  -14.5781 H   0  0
   13.4373    5.9156   -3.5453 H   0  0
   13.3482    4.1971   -2.8980 H   0  0
  1 14  1  0
  1 21  1  0
  2 18  1  0
  2 22  1  0
  3 12  2  0
  4 19  1  0
  5 19  2  0
  6 20  2  0
  7  9  1  0
  7 11  1  0
  7 15  1  0
  8 10  1  0
  8 12  1  0
  8 13  1  0
  9 12  1  0
  9 14  1  0
 10 11  1  0
 11 16  2  0
 13 18  1  0
 13 19  1  0
 15 17  2  0
 15 20  1  0
 16 17  1  0
 21 23  1  0
 22 24  1  0
 23 25  2  0
 24 26  2  0
  9 27  1  0
 10 28  1  0
 10 29  1  0
 13 30  1  0
 14 31  1  0
 14 32  1  0
 16 33  1  0
 17 34  1  0
 18 35  1  0
 18 36  1  0
 20 37  1  0
 21 38  1  0
 21 39  1  0
 22 40  1  0
 22 41  1  0
 23 42  1  0
 24 43  1  0
 25 44  1  0
 25 45  1  0
 26 46  1  0
 26 47  1  0
M  CHG  1   4  -1
M  END
> <Name>
132515677

> <Binding Energy>
-41.6301

> <Ligand Energy>
22.96

> <Protein Energy>
-7801.1566

> <Complex Energy>
-7819.8268

> <Complex Entropy>
-31.4855

> <Protein Entropy>
-31.4717

> <Ligand Entropy>
-20.0873

> <Entropic Energy>
20.0735

> <AbsoluteEnergy>
62.1398

> <ConfNumber>
108

> <Ionization pH>
7.5

> <IonizationIndex>
1

> <MOL_NUMBER>
649

> <NumberOfIonizations>
1

> <NumberOfStereoisomers>
1

> <NumberOfTautomers>
1

> <PUBCHEM_ATOM_DEF_STEREO_COUNT>
2

> <PUBCHEM_ATOM_UDEF_STEREO_COUNT>
0

> <PUBCHEM_BONDANNOTATIONS>
11  16  8
13  19  6
15  17  8
16  17  8
7  11  8
7  15  8
9  14  6

> <PUBCHEM_BOND_DEF_STEREO_COUNT>
0

> <PUBCHEM_BOND_UDEF_STEREO_COUNT>
0

> <PUBCHEM_CACTVS_COMPLEXITY>
557

> <PUBCHEM_CACTVS_HBOND_ACCEPTOR>
6

> <PUBCHEM_CACTVS_HBOND_DONOR>
1

> <PUBCHEM_CACTVS_ROTATABLE_BOND>
11

> <PUBCHEM_CACTVS_SUBSKEYS>
AAADceB7OABgAAAAAAAAAAAAAAAAAWAAAAAsAAAAAAAAAFgBgAAAHgQACAAACCjl1gawiJMMEgioAS3y3ACCgCAnAjAI2CG4ZNgKYPLglbGUQQhghgD4yYcYCQAQAAAAAAAAAAAAAAAAAAAAAAAAAAAAAA==

> <PUBCHEM_CACTVS_TAUTO_COUNT>
-1

> <PUBCHEM_CACTVS_TPSA>
130

> <PUBCHEM_COMPONENT_COUNT>
1

> <PUBCHEM_COMPOUND_CANONICALIZED>
1

> <PUBCHEM_COMPOUND_CID>
132515677

> <PUBCHEM_COORDINATE_TYPE>
1
5
255

> <PUBCHEM_EXACT_MASS>
394.10209953

> <PUBCHEM_HEAVY_ATOM_COUNT>
26

> <PUBCHEM_ISOTOPIC_ATOM_COUNT>
0

> <PUBCHEM_IUPAC_CAS_NAME>
(2R)-2-[(4R)-6-formyl-3-oxo-4-[(prop-2-enylthio)methyl]-1,4-dihydropyrrolo[1,2-a]pyrazin-2-yl]-3-(prop-2-enylthio)propanoic acid

> <PUBCHEM_IUPAC_INCHI>
InChI=1S/C18H22N2O4S2/c1-3-7-25-11-15-17(22)19(16(18(23)24)12-26-8-4-2)9-13-5-6-14(10-21)20(13)15/h3-6,10,15-16H,1-2,7-9,11-12H2,(H,23,24)/t15-,16-/m0/s1

> <PUBCHEM_IUPAC_INCHIKEY>
STHIQVXJUZQGIY-HOTGVXAUSA-N

> <PUBCHEM_IUPAC_NAME>
(2R)-2-[(4R)-6-formyl-3-oxo-4-(prop-2-enylsulfanylmethyl)-1,4-dihydropyrrolo[1,2-a]pyrazin-2-yl]-3-prop-2-enylsulfanylpropanoic acid

> <PUBCHEM_IUPAC_NAME_MARKUP>
(2<I>R</I>)-2-[(4<I>R</I>)-6-formyl-3-oxo-4-(prop-2-enylsulfanylmethyl)-1,4-dihydropyrrolo[1,2-a]pyrazin-2-yl]-3-prop-2-enylsulfanylpropanoic acid

> <PUBCHEM_IUPAC_OPENEYE_NAME>
(2R)-3-allylsulfanyl-2-[(4R)-4-(allylsulfanylmethyl)-6-formyl-3-oxo-1,4-dihydropyrrolo[1,2-a]pyrazin-2-yl]propanoic acid

> <PUBCHEM_IUPAC_SYSTEMATIC_NAME>
(2R)-2-[(4R)-6-methanoyl-3-oxidanylidene-4-(prop-2-enylsulfanylmethyl)-1,4-dihydropyrrolo[1,2-a]pyrazin-2-yl]-3-prop-2-enylsulfanyl-propanoic acid

> <PUBCHEM_IUPAC_TRADITIONAL_NAME>
(2R)-3-(allylthio)-2-[(4R)-4-[(allylthio)methyl]-6-formyl-3-keto-1,4-dihydropyrrolo[1,2-a]pyrazin-2-yl]propionic acid

> <PUBCHEM_MOLECULAR_FORMULA>
C18H22N2O4S2

> <PUBCHEM_MOLECULAR_WEIGHT>
394.5

> <PUBCHEM_MONOISOTOPIC_WEIGHT>
394.10209953

> <PUBCHEM_OPENEYE_CAN_SMILES>
C=CCSCC1C(=O)N(CC2=CC=C(N12)C=O)C(CSCC=C)C(=O)O

> <PUBCHEM_OPENEYE_ISO_SMILES>
C=CCSC[C@H]1C(=O)N(CC2=CC=C(N12)C=O)[C@@H](CSCC=C)C(=O)O

> <PUBCHEM_TOTAL_CHARGE>
0

> <PUBCHEM_XLOGP3_AA>
1.9

> <RelativeEnergy>
4.98937

> <StereoisomerIndex>
1

> <TautomerIndex>
1

> <POSE_NUMBER>
3

> <LibDockScore>
112.2725

> <HotSpots>
11.01,5.47,-15.65,P,18,6
7.61,3.27,-13.26,A,25,21
13.41,5.07,-3.25,A,44,26

> <-In-Situ Starting Energy>
-8647.63213

> <-In-Situ Final Energy>
15.3355135

> <In-Situ Gradient>
0.0009561679089

> <Favorable Total>
9

> <Unfavorable Total>
0

> <Charge Total>
0

> <Hydrophobic Total>
5

> <HydrogenBond Total>
3

> <Other Total>
1

> <Favorable A:LYS6>
0

> <Favorable A:ARG55>
0

> <Favorable A:LEU58>
0

> <Favorable A:LEU61>
1

> <Favorable A:ILE62>
0

> <Favorable A:GLY64>
0

> <Favorable A:SER65>
0

> <Favorable A:TRP66>
0

> <Favorable A:SER69>
0

> <Favorable A:VAL70>
0

> <Favorable A:PRO73>
0

> <Favorable A:ALA74>
0

> <Favorable A:PHE76>
0

> <Favorable A:ALA77>
0

> <Favorable A:THR78>
0

> <Favorable A:GLU79>
0

> <Favorable A:PHE82>
0

> <Favorable A:ARG83>
0

> <Favorable A:LEU85>
1

> <Favorable A:THR86>
2

> <Favorable A:TRP89>
2

> <Favorable A:THR90>
0

> <Favorable A:ASN93>
0

> <Favorable A:HIS94>
0

> <Favorable A:SER96>
0

> <Favorable A:VAL97>
0

> <Favorable A:TRP98>
0

> <Favorable A:PHE140>
0

> <Favorable A:LEU141>
0

> <Favorable A:ASN144>
0

> <Favorable A:ILE148>
0

> <Favorable A:ILE150>
0

> <Favorable A:HIS151>
0

> <Favorable A:ILE152>
0

> <Favorable A:ALA154>
0

> <Favorable A:SER155>
0

> <Favorable A:ILE156>
0

> <Favorable A:GLY158>
0

> <Favorable A:TYR159>
0

> <Favorable A:ARG160>
0

> <Favorable A:ARG161>
0

> <Favorable A:ASN162>
0

> <Favorable A:LYS163>
0

> <Favorable A:SER167>
0

> <Favorable A:ASP168>
0

> <Favorable A:SER169>
0

> <Favorable A:ASN171>
0

> <Favorable A:PHE172>
0

> <Favorable A:THR173>
0

> <Favorable A:ARG174>
0

> <Favorable A:PHE175>
0

> <Favorable A:SER176>
0

> <Favorable A:SER177>
0

> <Favorable A:LEU178>
0

> <Favorable A:ILE179>
0

> <Favorable A:VAL180>
1

> <Favorable A:LEU181>
0

> <Favorable A:SER183>
0

> <Favorable A:THR184>
0

> <Favorable A:PHE186>
0

> <Favorable A:ILE187>
0

> <Favorable A:PHE188>
0

> <Favorable A:ILE189>
0

> <Favorable A:PRO190>
0

> <Favorable A:PHE191>
0

> <Favorable A:TYR240>
0

> <Favorable A:PHE243>
0

> <Favorable A:SER244>
0

> <Favorable A:PHE247>
1

> <Favorable A:PHE248>
0

> <Favorable A:VAL251>
1

> <Favorable A:TRP252>
0

> <Favorable A:SER254>
0

> <Favorable A:GLU255>
0

> <Favorable A:ARG256>
0

> <Favorable A:LEU257>
0

> <Favorable A:GLU258>
0

> <Favorable A:GLU259>
0

> <Favorable A:LEU261>
0

> <Favorable A:ILE262>
0

> <Favorable A:ILE263>
0

> <Favorable A:SER265>
0

> <Favorable A:GLN266>
0

> <Favorable A:MET268>
0

> <Favorable A:GLY269>
0

> <Favorable A:TYR272>
0

> <Favorable A:PRO273>
0

> <Unfavorable A:ARG55>
0

> <Unfavorable A:PRO73>
0

> <Unfavorable A:PHE76>
0

> <Unfavorable A:GLU79>
0

> <Unfavorable A:ARG83>
0

> <Unfavorable A:THR86>
0

> <Unfavorable A:TRP89>
0

> <Unfavorable A:THR90>
0

> <Unfavorable A:ASN93>
0

> <Unfavorable A:TRP98>
0

> <Unfavorable A:ASN144>
0

> <Unfavorable A:SER155>
0

> <Unfavorable A:GLY158>
0

> <Unfavorable A:TYR159>
0

> <Unfavorable A:ASN162>
0

> <Unfavorable A:ASP168>
0

> <Unfavorable A:ASN171>
0

> <Unfavorable A:THR173>
0

> <Unfavorable A:ARG174>
0

> <Unfavorable A:SER183>
0

> <Unfavorable A:THR184>
0

> <Unfavorable A:PHE186>
0

> <Unfavorable A:SER244>
0

> <Unfavorable A:SER254>
0

> <Unfavorable A:GLU255>
0

> <Unfavorable A:SER265>
0

> <Unfavorable A:GLN266>
0

> <Unfavorable A:GLY269>
0

> <Charge A:ARG55>
0

> <Charge A:PHE76>
0

> <Charge A:GLU79>
0

> <Charge A:PHE82>
0

> <Charge A:ARG83>
0

> <Charge A:TRP89>
0

> <Charge A:HIS94>
0

> <Charge A:TRP98>
0

> <Charge A:TYR159>
0

> <Charge A:ARG161>
0

> <Charge A:LYS163>
0

> <Charge A:ASP168>
0

> <Charge A:PHE172>
0

> <Charge A:ARG174>
0

> <Charge A:PHE175>
0

> <Charge A:PHE188>
0

> <Charge A:PHE247>
0

> <Charge A:PHE248>
0

> <Hydrophobic A:LEU58>
0

> <Hydrophobic A:LEU61>
1

> <Hydrophobic A:ILE62>
0

> <Hydrophobic A:TRP66>
0

> <Hydrophobic A:VAL70>
0

> <Hydrophobic A:PRO73>
0

> <Hydrophobic A:ALA74>
0

> <Hydrophobic A:PHE76>
0

> <Hydrophobic A:ALA77>
0

> <Hydrophobic A:THR78>
0

> <Hydrophobic A:PHE82>
0

> <Hydrophobic A:ARG83>
0

> <Hydrophobic A:LEU85>
1

> <Hydrophobic A:TRP89>
0

> <Hydrophobic A:THR90>
0

> <Hydrophobic A:ASN93>
0

> <Hydrophobic A:HIS94>
0

> <Hydrophobic A:VAL97>
0

> <Hydrophobic A:TRP98>
0

> <Hydrophobic A:PHE140>
0

> <Hydrophobic A:LEU141>
0

> <Hydrophobic A:ILE148>
0

> <Hydrophobic A:ILE150>
0

> <Hydrophobic A:HIS151>
0

> <Hydrophobic A:ILE152>
0

> <Hydrophobic A:ALA154>
0

> <Hydrophobic A:SER155>
0

> <Hydrophobic A:ILE156>
0

> <Hydrophobic A:GLY158>
0

> <Hydrophobic A:TYR159>
0

> <Hydrophobic A:ARG160>
0

> <Hydrophobic A:ARG161>
0

> <Hydrophobic A:ASP168>
0

> <Hydrophobic A:ASN171>
0

> <Hydrophobic A:PHE172>
0

> <Hydrophobic A:ARG174>
0

> <Hydrophobic A:PHE175>
0

> <Hydrophobic A:LEU178>
0

> <Hydrophobic A:ILE179>
0

> <Hydrophobic A:VAL180>
1

> <Hydrophobic A:LEU181>
0

> <Hydrophobic A:PHE186>
0

> <Hydrophobic A:ILE187>
0

> <Hydrophobic A:PHE188>
0

> <Hydrophobic A:ILE189>
0

> <Hydrophobic A:PRO190>
0

> <Hydrophobic A:PHE191>
0

> <Hydrophobic A:TYR240>
0

> <Hydrophobic A:PHE243>
0

> <Hydrophobic A:PHE247>
1

> <Hydrophobic A:PHE248>
0

> <Hydrophobic A:VAL251>
1

> <Hydrophobic A:TRP252>
0

> <Hydrophobic A:SER254>
0

> <Hydrophobic A:LEU261>
0

> <Hydrophobic A:ILE262>
0

> <Hydrophobic A:ILE263>
0

> <Hydrophobic A:TYR272>
0

> <Hydrophobic A:PRO273>
0

> <HydrogenBond A:LYS6>
0

> <HydrogenBond A:ARG55>
0

> <HydrogenBond A:GLY64>
0

> <HydrogenBond A:SER65>
0

> <HydrogenBond A:TRP66>
0

> <HydrogenBond A:SER69>
0

> <HydrogenBond A:PRO73>
0

> <HydrogenBond A:ALA74>
0

> <HydrogenBond A:PHE76>
0

> <HydrogenBond A:ALA77>
0

> <HydrogenBond A:THR78>
0

> <HydrogenBond A:GLU79>
0

> <HydrogenBond A:PHE82>
0

> <HydrogenBond A:ARG83>
0

> <HydrogenBond A:LEU85>
0

> <HydrogenBond A:THR86>
2

> <HydrogenBond A:TRP89>
1

> <HydrogenBond A:THR90>
0

> <HydrogenBond A:ASN93>
0

> <HydrogenBond A:HIS94>
0

> <HydrogenBond A:SER96>
0

> <HydrogenBond A:TRP98>
0

> <HydrogenBond A:ASN144>
0

> <HydrogenBond A:HIS151>
0

> <HydrogenBond A:ILE152>
0

> <HydrogenBond A:ALA154>
0

> <HydrogenBond A:SER155>
0

> <HydrogenBond A:ILE156>
0

> <HydrogenBond A:GLY158>
0

> <HydrogenBond A:TYR159>
0

> <HydrogenBond A:ASN162>
0

> <HydrogenBond A:LYS163>
0

> <HydrogenBond A:SER167>
0

> <HydrogenBond A:ASP168>
0

> <HydrogenBond A:SER169>
0

> <HydrogenBond A:ASN171>
0

> <HydrogenBond A:PHE172>
0

> <HydrogenBond A:THR173>
0

> <HydrogenBond A:ARG174>
0

> <HydrogenBond A:PHE175>
0

> <HydrogenBond A:SER176>
0

> <HydrogenBond A:SER177>
0

> <HydrogenBond A:ILE179>
0

> <HydrogenBond A:VAL180>
0

> <HydrogenBond A:SER183>
0

> <HydrogenBond A:THR184>
0

> <HydrogenBond A:PHE186>
0

> <HydrogenBond A:ILE187>
0

> <HydrogenBond A:PRO190>
0

> <HydrogenBond A:TYR240>
0

> <HydrogenBond A:PHE243>
0

> <HydrogenBond A:SER244>
0

> <HydrogenBond A:PHE247>
0

> <HydrogenBond A:VAL251>
0

> <HydrogenBond A:SER254>
0

> <HydrogenBond A:GLU255>
0

> <HydrogenBond A:ARG256>
0

> <HydrogenBond A:LEU257>
0

> <HydrogenBond A:GLU258>
0

> <HydrogenBond A:GLU259>
0

> <HydrogenBond A:ILE262>
0

> <HydrogenBond A:SER265>
0

> <HydrogenBond A:GLN266>
0

> <HydrogenBond A:MET268>
0

> <HydrogenBond A:GLY269>
0

> <HydrogenBond A:PRO273>
0

> <Other A:SER69>
0

> <Other A:TRP89>
1

> <Other A:TYR159>
0

> <Other A:PHE172>
0

> <Other A:SER176>
0

> <Other A:SER265>
0

$$$$
44611569
  SciTegic09122300493D

 23 24  0  0  0  0            999 V2000
    8.1159    7.4665   -4.7580 O   0  0  0  1  0  0
    6.0440    8.2680   -0.1311 O   0  0  0  1  0  0
    6.1838   12.8937    0.0343 O   0  5  0  1  0  0
    6.7126    8.3025   -2.8181 C   0  0  0  1  0  0
    6.6354    9.5569   -2.0143 C   0  0  0  1  0  0
    7.9121    8.3175   -3.7156 C   0  0  0  1  0  0
    6.3651    9.4911   -0.6638 C   0  0  0  1  0  0
    6.7816   10.7964   -2.6216 C   0  0  0  1  0  0
    8.9281    9.2567   -3.6485 C   0  0  0  1  0  0
    6.3209   10.6474    0.0941 C   0  0  0  1  0  0
    6.8666   11.9232   -1.8451 C   0  0  0  1  0  0
    6.5326   11.8615   -0.5146 C   0  0  0  1  0  0
    9.3784    9.3120   -4.9422 C   0  0  0  1  0  0
    9.0496    8.0874   -5.5269 C   0  0  0  1  0  0
    6.1035    8.3464    0.7953 H   0  0
    6.6643    7.3948   -2.2188 H   0  0
    5.8580    8.3691   -3.4711 H   0  0
    6.8601   10.8819   -3.6954 H   0  0
    9.2463    9.8832   -2.8264 H   0  0
    6.0744   10.6881    1.1413 H   0  0
    6.9693   12.9174   -2.2518 H   0  0
    9.8422   10.2170   -5.2538 H   0  0
    9.4572    7.7002   -6.4438 H   0  0
  1  6  1  0
  1 14  1  0
  2  7  1  0
  3 12  1  0
  4  5  1  0
  4  6  1  0
  5  7  2  0
  5  8  1  0
  6  9  2  0
  7 10  1  0
  8 11  2  0
  9 13  1  0
 10 12  2  0
 11 12  1  0
 13 14  2  0
  2 15  1  0
  4 16  1  0
  4 17  1  0
  8 18  1  0
  9 19  1  0
 10 20  1  0
 11 21  1  0
 13 22  1  0
 14 23  1  0
M  CHG  1   3  -1
M  END
> <Name>
44611569

> <Binding Energy>
-59.9754

> <Ligand Energy>
5.4512

> <Protein Energy>
-7801.1566

> <Complex Energy>
-7855.6809

> <Complex Entropy>
-31.4774

> <Protein Entropy>
-31.4717

> <Ligand Entropy>
-18.0995

> <Entropic Energy>
18.0938

> <AbsoluteEnergy>
17.776

> <ConfNumber>
18

> <Ionization pH>
7.89_DP

> <IonizationIndex>
2

> <MOL_NUMBER>
652

> <NumberOfIonizations>
2

> <NumberOfStereoisomers>
1

> <NumberOfTautomers>
1

> <PUBCHEM_ATOM_DEF_STEREO_COUNT>
0

> <PUBCHEM_ATOM_UDEF_STEREO_COUNT>
0

> <PUBCHEM_BOND_DEF_STEREO_COUNT>
0

> <PUBCHEM_BOND_UDEF_STEREO_COUNT>
0

> <PUBCHEM_CACTVS_TAUTO_COUNT>
9

> <PUBCHEM_COMPONENT_COUNT>
1

> <PUBCHEM_COMPOUND_CID>
44611569

> <PUBCHEM_CONFORMER_DIVERSEORDER>
1
9
6
12
7
10
4
11
13
8
5
2
3

> <PUBCHEM_CONFORMER_ID>
02A8B7F100000001

> <PUBCHEM_CONFORMER_RMSD>
0.6

> <PUBCHEM_COORDINATE_TYPE>
2
5
10

> <PUBCHEM_EFFECTIVE_ROTOR_COUNT>
2

> <PUBCHEM_FEATURE_SELFOVERLAP>
25.372

> <PUBCHEM_HEAVY_ATOM_COUNT>
14

> <PUBCHEM_ISOTOPIC_ATOM_COUNT>
0

> <PUBCHEM_MMFF94_ENERGY>
23.3945

> <PUBCHEM_MMFF94_PARTIAL_CHARGES>
22
1 -0.28
10 -0.15
11 -0.15
12 0.08
13 -0.15
14 -0.01
17 0.15
18 0.15
19 0.15
2 -0.53
20 0.15
21 0.15
22 0.15
23 0.45
24 0.45
3 -0.53
4 0.32
5 -0.14
6 -0.04
7 0.08
8 -0.15
9 -0.15

> <PUBCHEM_PHARMACOPHORE_FEATURES>
5
1 1 acceptor
1 2 donor
1 3 donor
5 1 6 9 13 14 rings
6 5 7 8 10 11 12 rings

> <PUBCHEM_SHAPE_FINGERPRINT>
10465860 71 18333731342506177293
11769659 78 16486678273397179751
12251169 10 10087632698213322218
12897270 3 18408890633213375074
13299463 15 18343022155599732770
14911166 2 18261102002885983983
15775835 57 16008748017706910414
16945 1 18259703389102699025
17134986 127 17323511887045666005
17804303 29 10591501515408154176
18186145 218 17821729420546990013
19422 9 15051746295504457290
200 152 17703791401305812814
20201158 50 18341896290094982314
20279233 1 18343017813577765642
20281407 28 17918273160005148603
20361792 2 15985098587803321624
20645476 183 17095239241782809851
20871999 31 18335416859767244805
21501502 16 18195811769192912322
22169311 14 8646767790100214020
22213442 358 18266180719539426011
22445834 79 13182746909384636772
22802520 49 18339367366048272786
228727 97 17894911797847931529
23402539 116 18261946367475564220
23419403 2 10884540180741542843
23557571 272 18042977660193823698
23559900 14 18334855031095537258
27216 239 12181286529023713574
2748010 2 17827349196844898931
353137 74 18113616746655713049
4028521 119 17894629240460113708
465052 167 15266776745393221925
5262128 65 18264510454377400164
7364860 26 18053379087490407569
8030462 33 17822578213807086874
81228 2 18336829697374984257

> <PUBCHEM_SHAPE_MULTIPOLES>
270.51
6.67
1.55
1.04
1.25
0.4
0.11
-1.29
-2.77
-0.31
-0.05
0.07
-0.1
0.37

> <PUBCHEM_SHAPE_SELFOVERLAP>
585.101

> <PUBCHEM_SHAPE_VOLUME>
149.6

> <RelativeEnergy>
3.52243

> <StereoisomerIndex>
1

> <TautomerIndex>
1

> <POSE_NUMBER>
1

> <LibDockScore>
95.171

> <HotSpots>
6.81,8.27,-5.05,P,59,1
7.01,11.07,-2.85,A,47,8
6.41,11.47,-0.06,A,67,10

> <-In-Situ Starting Energy>
-236.197262

> <-In-Situ Final Energy>
23.1097452

> <In-Situ Gradient>
0.0009826542992

> <Favorable Total>
5

> <Unfavorable Total>
0

> <Charge Total>
0

> <Hydrophobic Total>
3

> <HydrogenBond Total>
2

> <Other Total>
0

> <Favorable A:LYS6>
0

> <Favorable A:ARG55>
0

> <Favorable A:LEU58>
0

> <Favorable A:LEU61>
0

> <Favorable A:ILE62>
0

> <Favorable A:GLY64>
0

> <Favorable A:SER65>
0

> <Favorable A:TRP66>
0

> <Favorable A:SER69>
0

> <Favorable A:VAL70>
0

> <Favorable A:PRO73>
0

> <Favorable A:ALA74>
0

> <Favorable A:PHE76>
0

> <Favorable A:ALA77>
0

> <Favorable A:THR78>
0

> <Favorable A:GLU79>
0

> <Favorable A:PHE82>
0

> <Favorable A:ARG83>
0

> <Favorable A:LEU85>
0

> <Favorable A:THR86>
0

> <Favorable A:TRP89>
0

> <Favorable A:THR90>
0

> <Favorable A:ASN93>
0

> <Favorable A:HIS94>
2

> <Favorable A:SER96>
0

> <Favorable A:VAL97>
0

> <Favorable A:TRP98>
1

> <Favorable A:PHE140>
0

> <Favorable A:LEU141>
0

> <Favorable A:ASN144>
0

> <Favorable A:ILE148>
0

> <Favorable A:ILE150>
0

> <Favorable A:HIS151>
0

> <Favorable A:ILE152>
0

> <Favorable A:ALA154>
0

> <Favorable A:SER155>
0

> <Favorable A:ILE156>
0

> <Favorable A:GLY158>
0

> <Favorable A:TYR159>
0

> <Favorable A:ARG160>
0

> <Favorable A:ARG161>
0

> <Favorable A:ASN162>
0

> <Favorable A:LYS163>
0

> <Favorable A:SER167>
0

> <Favorable A:ASP168>
0

> <Favorable A:SER169>
0

> <Favorable A:ASN171>
0

> <Favorable A:PHE172>
0

> <Favorable A:THR173>
0

> <Favorable A:ARG174>
0

> <Favorable A:PHE175>
0

> <Favorable A:SER176>
0

> <Favorable A:SER177>
0

> <Favorable A:LEU178>
0

> <Favorable A:ILE179>
0

> <Favorable A:VAL180>
0

> <Favorable A:LEU181>
0

> <Favorable A:SER183>
0

> <Favorable A:THR184>
0

> <Favorable A:PHE186>
0

> <Favorable A:ILE187>
2

> <Favorable A:PHE188>
0

> <Favorable A:ILE189>
0

> <Favorable A:PRO190>
0

> <Favorable A:PHE191>
0

> <Favorable A:TYR240>
0

> <Favorable A:PHE243>
0

> <Favorable A:SER244>
0

> <Favorable A:PHE247>
0

> <Favorable A:PHE248>
0

> <Favorable A:VAL251>
0

> <Favorable A:TRP252>
0

> <Favorable A:SER254>
0

> <Favorable A:GLU255>
0

> <Favorable A:ARG256>
0

> <Favorable A:LEU257>
0

> <Favorable A:GLU258>
0

> <Favorable A:GLU259>
0

> <Favorable A:LEU261>
0

> <Favorable A:ILE262>
0

> <Favorable A:ILE263>
0

> <Favorable A:SER265>
0

> <Favorable A:GLN266>
0

> <Favorable A:MET268>
0

> <Favorable A:GLY269>
0

> <Favorable A:TYR272>
0

> <Favorable A:PRO273>
0

> <Unfavorable A:ARG55>
0

> <Unfavorable A:PRO73>
0

> <Unfavorable A:PHE76>
0

> <Unfavorable A:GLU79>
0

> <Unfavorable A:ARG83>
0

> <Unfavorable A:THR86>
0

> <Unfavorable A:TRP89>
0

> <Unfavorable A:THR90>
0

> <Unfavorable A:ASN93>
0

> <Unfavorable A:TRP98>
0

> <Unfavorable A:ASN144>
0

> <Unfavorable A:SER155>
0

> <Unfavorable A:GLY158>
0

> <Unfavorable A:TYR159>
0

> <Unfavorable A:ASN162>
0

> <Unfavorable A:ASP168>
0

> <Unfavorable A:ASN171>
0

> <Unfavorable A:THR173>
0

> <Unfavorable A:ARG174>
0

> <Unfavorable A:SER183>
0

> <Unfavorable A:THR184>
0

> <Unfavorable A:PHE186>
0

> <Unfavorable A:SER244>
0

> <Unfavorable A:SER254>
0

> <Unfavorable A:GLU255>
0

> <Unfavorable A:SER265>
0

> <Unfavorable A:GLN266>
0

> <Unfavorable A:GLY269>
0

> <Charge A:ARG55>
0

> <Charge A:PHE76>
0

> <Charge A:GLU79>
0

> <Charge A:PHE82>
0

> <Charge A:ARG83>
0

> <Charge A:TRP89>
0

> <Charge A:HIS94>
0

> <Charge A:TRP98>
0

> <Charge A:TYR159>
0

> <Charge A:ARG161>
0

> <Charge A:LYS163>
0

> <Charge A:ASP168>
0

> <Charge A:PHE172>
0

> <Charge A:ARG174>
0

> <Charge A:PHE175>
0

> <Charge A:PHE188>
0

> <Charge A:PHE247>
0

> <Charge A:PHE248>
0

> <Hydrophobic A:LEU58>
0

> <Hydrophobic A:LEU61>
0

> <Hydrophobic A:ILE62>
0

> <Hydrophobic A:TRP66>
0

> <Hydrophobic A:VAL70>
0

> <Hydrophobic A:PRO73>
0

> <Hydrophobic A:ALA74>
0

> <Hydrophobic A:PHE76>
0

> <Hydrophobic A:ALA77>
0

> <Hydrophobic A:THR78>
0

> <Hydrophobic A:PHE82>
0

> <Hydrophobic A:ARG83>
0

> <Hydrophobic A:LEU85>
0

> <Hydrophobic A:TRP89>
0

> <Hydrophobic A:THR90>
0

> <Hydrophobic A:ASN93>
0

> <Hydrophobic A:HIS94>
1

> <Hydrophobic A:VAL97>
0

> <Hydrophobic A:TRP98>
0

> <Hydrophobic A:PHE140>
0

> <Hydrophobic A:LEU141>
0

> <Hydrophobic A:ILE148>
0

> <Hydrophobic A:ILE150>
0

> <Hydrophobic A:HIS151>
0

> <Hydrophobic A:ILE152>
0

> <Hydrophobic A:ALA154>
0

> <Hydrophobic A:SER155>
0

> <Hydrophobic A:ILE156>
0

> <Hydrophobic A:GLY158>
0

> <Hydrophobic A:TYR159>
0

> <Hydrophobic A:ARG160>
0

> <Hydrophobic A:ARG161>
0

> <Hydrophobic A:ASP168>
0

> <Hydrophobic A:ASN171>
0

> <Hydrophobic A:PHE172>
0

> <Hydrophobic A:ARG174>
0

> <Hydrophobic A:PHE175>
0

> <Hydrophobic A:LEU178>
0

> <Hydrophobic A:ILE179>
0

> <Hydrophobic A:VAL180>
0

> <Hydrophobic A:LEU181>
0

> <Hydrophobic A:PHE186>
0

> <Hydrophobic A:ILE187>
2

> <Hydrophobic A:PHE188>
0

> <Hydrophobic A:ILE189>
0

> <Hydrophobic A:PRO190>
0

> <Hydrophobic A:PHE191>
0

> <Hydrophobic A:TYR240>
0

> <Hydrophobic A:PHE243>
0

> <Hydrophobic A:PHE247>
0

> <Hydrophobic A:PHE248>
0

> <Hydrophobic A:VAL251>
0

> <Hydrophobic A:TRP252>
0

> <Hydrophobic A:SER254>
0

> <Hydrophobic A:LEU261>
0

> <Hydrophobic A:ILE262>
0

> <Hydrophobic A:ILE263>
0

> <Hydrophobic A:TYR272>
0

> <Hydrophobic A:PRO273>
0

> <HydrogenBond A:LYS6>
0

> <HydrogenBond A:ARG55>
0

> <HydrogenBond A:GLY64>
0

> <HydrogenBond A:SER65>
0

> <HydrogenBond A:TRP66>
0

> <HydrogenBond A:SER69>
0

> <HydrogenBond A:PRO73>
0

> <HydrogenBond A:ALA74>
0

> <HydrogenBond A:PHE76>
0

> <HydrogenBond A:ALA77>
0

> <HydrogenBond A:THR78>
0

> <HydrogenBond A:GLU79>
0

> <HydrogenBond A:PHE82>
0

> <HydrogenBond A:ARG83>
0

> <HydrogenBond A:LEU85>
0

> <HydrogenBond A:THR86>
0

> <HydrogenBond A:TRP89>
0

> <HydrogenBond A:THR90>
0

> <HydrogenBond A:ASN93>
0

> <HydrogenBond A:HIS94>
1

> <HydrogenBond A:SER96>
0

> <HydrogenBond A:TRP98>
1

> <HydrogenBond A:ASN144>
0

> <HydrogenBond A:HIS151>
0

> <HydrogenBond A:ILE152>
0

> <HydrogenBond A:ALA154>
0

> <HydrogenBond A:SER155>
0

> <HydrogenBond A:ILE156>
0

> <HydrogenBond A:GLY158>
0

> <HydrogenBond A:TYR159>
0

> <HydrogenBond A:ASN162>
0

> <HydrogenBond A:LYS163>
0

> <HydrogenBond A:SER167>
0

> <HydrogenBond A:ASP168>
0

> <HydrogenBond A:SER169>
0

> <HydrogenBond A:ASN171>
0

> <HydrogenBond A:PHE172>
0

> <HydrogenBond A:THR173>
0

> <HydrogenBond A:ARG174>
0

> <HydrogenBond A:PHE175>
0

> <HydrogenBond A:SER176>
0

> <HydrogenBond A:SER177>
0

> <HydrogenBond A:ILE179>
0

> <HydrogenBond A:VAL180>
0

> <HydrogenBond A:SER183>
0

> <HydrogenBond A:THR184>
0

> <HydrogenBond A:PHE186>
0

> <HydrogenBond A:ILE187>
0

> <HydrogenBond A:PRO190>
0

> <HydrogenBond A:TYR240>
0

> <HydrogenBond A:PHE243>
0

> <HydrogenBond A:SER244>
0

> <HydrogenBond A:PHE247>
0

> <HydrogenBond A:VAL251>
0

> <HydrogenBond A:SER254>
0

> <HydrogenBond A:GLU255>
0

> <HydrogenBond A:ARG256>
0

> <HydrogenBond A:LEU257>
0

> <HydrogenBond A:GLU258>
0

> <HydrogenBond A:GLU259>
0

> <HydrogenBond A:ILE262>
0

> <HydrogenBond A:SER265>
0

> <HydrogenBond A:GLN266>
0

> <HydrogenBond A:MET268>
0

> <HydrogenBond A:GLY269>
0

> <HydrogenBond A:PRO273>
0

> <Other A:SER69>
0

> <Other A:TRP89>
0

> <Other A:TYR159>
0

> <Other A:PHE172>
0

> <Other A:SER176>
0

> <Other A:SER265>
0

$$$$
184021992
  SciTegic09122300493D

 49 48  0  0  0  0            999 V2000
    6.4636   12.2921   -0.0106 O   0  0  0  1  0  0
    6.8727   12.3145   -2.0920 O   0  5  0  1  0  0
    6.6723   11.6885   -1.0513 C   0  0  0  1  0  0
    6.6963   10.1414   -1.0222 C   0  0  0  1  0  0
    6.7999    9.4248   -2.3866 C   0  0  0  1  0  0
    7.8724   10.0251   -3.2960 C   0  0  0  1  0  0
    8.2995    9.2301   -4.5086 C   0  0  0  1  0  0
    8.8882    7.9117   -4.1455 C   0  0  0  1  0  0
    9.2681    4.0250   -3.3111 C   0  0  0  1  0  0
    9.4817    7.1357   -5.3098 C   0  0  0  1  0  0
    9.2663    4.8360   -4.3719 C   0  0  0  1  0  0
   10.2462    5.8675   -4.8589 C   0  0  0  1  0  0
    8.3044    2.9779   -2.8028 C   0  0  0  1  0  0
    7.5473    3.3697   -1.5651 C   0  0  0  1  0  0
    7.9548    2.9509   -0.3581 C   0  0  0  1  0  0
    7.1840    2.9769    0.9263 C   0  0  0  1  0  0
    6.7145    1.5840    1.2554 C   0  0  0  1  0  0
    6.9990    0.4948    0.5124 C   0  0  0  1  0  0
    6.5060   -0.8888    0.7803 C   0  0  0  1  0  0
    7.6408   -1.8874    0.9687 C   0  0  0  1  0  0
    5.8085    9.7949   -0.4927 H   0  0
    7.5461    9.8515   -0.4065 H   0  0
    5.8533    9.4674   -2.9153 H   0  0
    6.9906    8.3710   -2.1968 H   0  0
    7.4098   10.8940   -3.7474 H   0  0
    8.7405   10.3173   -2.7035 H   0  0
    9.0537    9.7821   -5.0644 H   0  0
    7.4154    9.0816   -5.1109 H   0  0
    9.6439    8.0844   -3.3785 H   0  0
    8.0459    7.3455   -3.7531 H   0  0
   10.1532    4.1257   -2.7381 H   0  0
   10.1100    7.7655   -5.9359 H   0  0
    8.6388    6.8782   -5.9394 H   0  0
    8.3843    4.9790   -4.9101 H   0  0
   10.8221    5.4690   -5.6945 H   0  0
   10.9679    6.0880   -4.0731 H   0  0
    7.6144    2.6263   -3.5443 H   0  0
    8.8419    2.0670   -2.5819 H   0  0
    6.6112    3.8790   -1.7038 H   0  0
    8.9488    2.5704   -0.2507 H   0  0
    6.3199    3.6264    0.8257 H   0  0
    7.8024    3.3731    1.7317 H   0  0
    6.0990    1.4940    2.1306 H   0  0
    7.6225    0.5434   -0.3610 H   0  0
    5.9030   -1.1965   -0.0734 H   0  0
    5.8785   -0.8766    1.6693 H   0  0
    8.2537   -1.6032    1.8189 H   0  0
    8.2798   -1.9313    0.0876 H   0  0
    7.2581   -2.8921    1.1444 H   0  0
  1  3  2  0
  2  3  1  0
  3  4  1  0
  4  5  1  0
  5  6  1  0
  6  7  1  0
  7  8  1  0
  8 10  1  0
  9 11  2  0
  9 13  1  0
 10 12  1  0
 11 12  1  0
 13 14  1  0
 14 15  2  0
 15 16  1  0
 16 17  1  0
 17 18  2  0
 18 19  1  0
 19 20  1  0
  4 21  1  0
  4 22  1  0
  5 23  1  0
  5 24  1  0
  6 25  1  0
  6 26  1  0
  7 27  1  0
  7 28  1  0
  8 29  1  0
  8 30  1  0
  9 31  1  0
 10 32  1  0
 10 33  1  0
 11 34  1  0
 12 35  1  0
 12 36  1  0
 13 37  1  0
 13 38  1  0
 14 39  1  0
 15 40  1  0
 16 41  1  0
 16 42  1  0
 17 43  1  0
 18 44  1  0
 19 45  1  0
 19 46  1  0
 20 47  1  0
 20 48  1  0
 20 49  1  0
M  CHG  1   2  -1
M  END
> <Name>
184021992

> <Binding Energy>
-57.8694

> <Ligand Energy>
55.759

> <Protein Energy>
-7801.1566

> <Complex Energy>
-7803.2671

> <Complex Entropy>
-31.4797

> <Protein Entropy>
-31.4717

> <Ligand Entropy>
-19.7907

> <Entropic Energy>
19.7827

> <AbsoluteEnergy>
18.4084

> <ConfNumber>
107

> <Ionization pH>
7.5

> <IonizationIndex>
1

> <MOL_NUMBER>
660

> <NumberOfIonizations>
1

> <NumberOfStereoisomers>
8

> <NumberOfTautomers>
1

> <PUBCHEM_CID_ASSOCIATIONS>
860  1

> <PUBCHEM_COMPOUND_ID_TYPE>
0

> <PUBCHEM_EXT_DATASOURCE_NAME>
4381

> <PUBCHEM_EXT_DATASOURCE_REGID>
alpha-linolenic acid

> <PUBCHEM_EXT_DATASOURCE_URL>
http://chemogenomics.pharmacy.ubc.ca/HIPHOP/

> <PUBCHEM_SUBSTANCE_COMMENT>
Associated screen ID(s) at http://chemogenomics.pharmacy.ubc.ca/HIPHOP/ (PMID 24723613): SGTC_410

> <PUBCHEM_SUBSTANCE_ID>
184021992

> <PUBCHEM_SUBSTANCE_SYNONYM>
alpha-linolenic acid

> <PUBCHEM_SUBSTANCE_VERSION>
3

> <PUBCHEM_TOTAL_CHARGE>
0

> <PUBCHEM_XREF_EXT_ID>
alpha-linolenic acid

> <RelativeEnergy>
6.16867

> <StereoisomerIndex>
8

> <TautomerIndex>
1

> <POSE_NUMBER>
10

> <LibDockScore>
114.8325

> <HotSpots>
5.01,10.27,-0.85,P,81,1
7.61,2.87,-1.05,A,58,15
6.21,0.27,3.35,A,87,20

> <-In-Situ Starting Energy>
-1158.26187

> <-In-Situ Final Energy>
-19.7886407

> <In-Situ Gradient>
0.0009032348994

> <Favorable Total>
3

> <Unfavorable Total>
0

> <Charge Total>
0

> <Hydrophobic Total>
1

> <HydrogenBond Total>
2

> <Other Total>
0

> <Favorable A:LYS6>
0

> <Favorable A:ARG55>
0

> <Favorable A:LEU58>
0

> <Favorable A:LEU61>
0

> <Favorable A:ILE62>
0

> <Favorable A:GLY64>
0

> <Favorable A:SER65>
0

> <Favorable A:TRP66>
0

> <Favorable A:SER69>
0

> <Favorable A:VAL70>
0

> <Favorable A:PRO73>
0

> <Favorable A:ALA74>
0

> <Favorable A:PHE76>
0

> <Favorable A:ALA77>
0

> <Favorable A:THR78>
0

> <Favorable A:GLU79>
0

> <Favorable A:PHE82>
0

> <Favorable A:ARG83>
0

> <Favorable A:LEU85>
0

> <Favorable A:THR86>
0

> <Favorable A:TRP89>
0

> <Favorable A:THR90>
0

> <Favorable A:ASN93>
0

> <Favorable A:HIS94>
0

> <Favorable A:SER96>
0

> <Favorable A:VAL97>
0

> <Favorable A:TRP98>
1

> <Favorable A:PHE140>
0

> <Favorable A:LEU141>
0

> <Favorable A:ASN144>
1

> <Favorable A:ILE148>
0

> <Favorable A:ILE150>
0

> <Favorable A:HIS151>
0

> <Favorable A:ILE152>
0

> <Favorable A:ALA154>
0

> <Favorable A:SER155>
0

> <Favorable A:ILE156>
0

> <Favorable A:GLY158>
0

> <Favorable A:TYR159>
0

> <Favorable A:ARG160>
0

> <Favorable A:ARG161>
0

> <Favorable A:ASN162>
0

> <Favorable A:LYS163>
0

> <Favorable A:SER167>
0

> <Favorable A:ASP168>
0

> <Favorable A:SER169>
0

> <Favorable A:ASN171>
0

> <Favorable A:PHE172>
0

> <Favorable A:THR173>
0

> <Favorable A:ARG174>
0

> <Favorable A:PHE175>
0

> <Favorable A:SER176>
0

> <Favorable A:SER177>
0

> <Favorable A:LEU178>
0

> <Favorable A:ILE179>
0

> <Favorable A:VAL180>
0

> <Favorable A:LEU181>
0

> <Favorable A:SER183>
0

> <Favorable A:THR184>
0

> <Favorable A:PHE186>
0

> <Favorable A:ILE187>
0

> <Favorable A:PHE188>
0

> <Favorable A:ILE189>
0

> <Favorable A:PRO190>
0

> <Favorable A:PHE191>
0

> <Favorable A:TYR240>
0

> <Favorable A:PHE243>
0

> <Favorable A:SER244>
0

> <Favorable A:PHE247>
1

> <Favorable A:PHE248>
0

> <Favorable A:VAL251>
0

> <Favorable A:TRP252>
0

> <Favorable A:SER254>
0

> <Favorable A:GLU255>
0

> <Favorable A:ARG256>
0

> <Favorable A:LEU257>
0

> <Favorable A:GLU258>
0

> <Favorable A:GLU259>
0

> <Favorable A:LEU261>
0

> <Favorable A:ILE262>
0

> <Favorable A:ILE263>
0

> <Favorable A:SER265>
0

> <Favorable A:GLN266>
0

> <Favorable A:MET268>
0

> <Favorable A:GLY269>
0

> <Favorable A:TYR272>
0

> <Favorable A:PRO273>
0

> <Unfavorable A:ARG55>
0

> <Unfavorable A:PRO73>
0

> <Unfavorable A:PHE76>
0

> <Unfavorable A:GLU79>
0

> <Unfavorable A:ARG83>
0

> <Unfavorable A:THR86>
0

> <Unfavorable A:TRP89>
0

> <Unfavorable A:THR90>
0

> <Unfavorable A:ASN93>
0

> <Unfavorable A:TRP98>
0

> <Unfavorable A:ASN144>
0

> <Unfavorable A:SER155>
0

> <Unfavorable A:GLY158>
0

> <Unfavorable A:TYR159>
0

> <Unfavorable A:ASN162>
0

> <Unfavorable A:ASP168>
0

> <Unfavorable A:ASN171>
0

> <Unfavorable A:THR173>
0

> <Unfavorable A:ARG174>
0

> <Unfavorable A:SER183>
0

> <Unfavorable A:THR184>
0

> <Unfavorable A:PHE186>
0

> <Unfavorable A:SER244>
0

> <Unfavorable A:SER254>
0

> <Unfavorable A:GLU255>
0

> <Unfavorable A:SER265>
0

> <Unfavorable A:GLN266>
0

> <Unfavorable A:GLY269>
0

> <Charge A:ARG55>
0

> <Charge A:PHE76>
0

> <Charge A:GLU79>
0

> <Charge A:PHE82>
0

> <Charge A:ARG83>
0

> <Charge A:TRP89>
0

> <Charge A:HIS94>
0

> <Charge A:TRP98>
0

> <Charge A:TYR159>
0

> <Charge A:ARG161>
0

> <Charge A:LYS163>
0

> <Charge A:ASP168>
0

> <Charge A:PHE172>
0

> <Charge A:ARG174>
0

> <Charge A:PHE175>
0

> <Charge A:PHE188>
0

> <Charge A:PHE247>
0

> <Charge A:PHE248>
0

> <Hydrophobic A:LEU58>
0

> <Hydrophobic A:LEU61>
0

> <Hydrophobic A:ILE62>
0

> <Hydrophobic A:TRP66>
0

> <Hydrophobic A:VAL70>
0

> <Hydrophobic A:PRO73>
0

> <Hydrophobic A:ALA74>
0

> <Hydrophobic A:PHE76>
0

> <Hydrophobic A:ALA77>
0

> <Hydrophobic A:THR78>
0

> <Hydrophobic A:PHE82>
0

> <Hydrophobic A:ARG83>
0

> <Hydrophobic A:LEU85>
0

> <Hydrophobic A:TRP89>
0

> <Hydrophobic A:THR90>
0

> <Hydrophobic A:ASN93>
0

> <Hydrophobic A:HIS94>
0

> <Hydrophobic A:VAL97>
0

> <Hydrophobic A:TRP98>
0

> <Hydrophobic A:PHE140>
0

> <Hydrophobic A:LEU141>
0

> <Hydrophobic A:ILE148>
0

> <Hydrophobic A:ILE150>
0

> <Hydrophobic A:HIS151>
0

> <Hydrophobic A:ILE152>
0

> <Hydrophobic A:ALA154>
0

> <Hydrophobic A:SER155>
0

> <Hydrophobic A:ILE156>
0

> <Hydrophobic A:GLY158>
0

> <Hydrophobic A:TYR159>
0

> <Hydrophobic A:ARG160>
0

> <Hydrophobic A:ARG161>
0

> <Hydrophobic A:ASP168>
0

> <Hydrophobic A:ASN171>
0

> <Hydrophobic A:PHE172>
0

> <Hydrophobic A:ARG174>
0

> <Hydrophobic A:PHE175>
0

> <Hydrophobic A:LEU178>
0

> <Hydrophobic A:ILE179>
0

> <Hydrophobic A:VAL180>
0

> <Hydrophobic A:LEU181>
0

> <Hydrophobic A:PHE186>
0

> <Hydrophobic A:ILE187>
0

> <Hydrophobic A:PHE188>
0

> <Hydrophobic A:ILE189>
0

> <Hydrophobic A:PRO190>
0

> <Hydrophobic A:PHE191>
0

> <Hydrophobic A:TYR240>
0

> <Hydrophobic A:PHE243>
0

> <Hydrophobic A:PHE247>
1

> <Hydrophobic A:PHE248>
0

> <Hydrophobic A:VAL251>
0

> <Hydrophobic A:TRP252>
0

> <Hydrophobic A:SER254>
0

> <Hydrophobic A:LEU261>
0

> <Hydrophobic A:ILE262>
0

> <Hydrophobic A:ILE263>
0

> <Hydrophobic A:TYR272>
0

> <Hydrophobic A:PRO273>
0

> <HydrogenBond A:LYS6>
0

> <HydrogenBond A:ARG55>
0

> <HydrogenBond A:GLY64>
0

> <HydrogenBond A:SER65>
0

> <HydrogenBond A:TRP66>
0

> <HydrogenBond A:SER69>
0

> <HydrogenBond A:PRO73>
0

> <HydrogenBond A:ALA74>
0

> <HydrogenBond A:PHE76>
0

> <HydrogenBond A:ALA77>
0

> <HydrogenBond A:THR78>
0

> <HydrogenBond A:GLU79>
0

> <HydrogenBond A:PHE82>
0

> <HydrogenBond A:ARG83>
0

> <HydrogenBond A:LEU85>
0

> <HydrogenBond A:THR86>
0

> <HydrogenBond A:TRP89>
0

> <HydrogenBond A:THR90>
0

> <HydrogenBond A:ASN93>
0

> <HydrogenBond A:HIS94>
0

> <HydrogenBond A:SER96>
0

> <HydrogenBond A:TRP98>
1

> <HydrogenBond A:ASN144>
1

> <HydrogenBond A:HIS151>
0

> <HydrogenBond A:ILE152>
0

> <HydrogenBond A:ALA154>
0

> <HydrogenBond A:SER155>
0

> <HydrogenBond A:ILE156>
0

> <HydrogenBond A:GLY158>
0

> <HydrogenBond A:TYR159>
0

> <HydrogenBond A:ASN162>
0

> <HydrogenBond A:LYS163>
0

> <HydrogenBond A:SER167>
0

> <HydrogenBond A:ASP168>
0

> <HydrogenBond A:SER169>
0

> <HydrogenBond A:ASN171>
0

> <HydrogenBond A:PHE172>
0

> <HydrogenBond A:THR173>
0

> <HydrogenBond A:ARG174>
0

> <HydrogenBond A:PHE175>
0

> <HydrogenBond A:SER176>
0

> <HydrogenBond A:SER177>
0

> <HydrogenBond A:ILE179>
0

> <HydrogenBond A:VAL180>
0

> <HydrogenBond A:SER183>
0

> <HydrogenBond A:THR184>
0

> <HydrogenBond A:PHE186>
0

> <HydrogenBond A:ILE187>
0

> <HydrogenBond A:PRO190>
0

> <HydrogenBond A:TYR240>
0

> <HydrogenBond A:PHE243>
0

> <HydrogenBond A:SER244>
0

> <HydrogenBond A:PHE247>
0

> <HydrogenBond A:VAL251>
0

> <HydrogenBond A:SER254>
0

> <HydrogenBond A:GLU255>
0

> <HydrogenBond A:ARG256>
0

> <HydrogenBond A:LEU257>
0

> <HydrogenBond A:GLU258>
0

> <HydrogenBond A:GLU259>
0

> <HydrogenBond A:ILE262>
0

> <HydrogenBond A:SER265>
0

> <HydrogenBond A:GLN266>
0

> <HydrogenBond A:MET268>
0

> <HydrogenBond A:GLY269>
0

> <HydrogenBond A:PRO273>
0

> <Other A:SER69>
0

> <Other A:TRP89>
0

> <Other A:TYR159>
0

> <Other A:PHE172>
0

> <Other A:SER176>
0

> <Other A:SER265>
0

$$$$
586
  SciTegic09122300493D

 18 17  0  0  0  0            999 V2000
    6.0394    9.4451    0.2294 O   0  5  0  1  0  0
    6.0787   11.3665   -0.7610 O   0  0  0  1  0  0
    7.6168    9.3331   -2.7157 N   0  0  0  1  0  0
    9.0718    8.2483   -4.1576 N   0  0  0  1  0  0
    6.7945    8.4705   -4.6820 N   0  3  0  1  0  0
    6.2828    9.4194   -2.1401 C   0  0  0  1  0  0
    8.6296   10.1912   -2.1547 C   0  0  0  1  0  0
    7.8360    8.6642   -3.8772 C   0  0  0  1  0  0
    6.1264   10.1335   -0.7815 C   0  0  0  1  0  0
    9.7831    8.3826   -3.4610 H   0  0
    9.3115    7.7972   -5.0180 H   0  0
    5.9213    8.9439   -4.5170 H   0  0
    6.8369    7.8713   -5.4809 H   0  0
    5.7107    9.9924   -2.8473 H   0  0
    5.8508    8.4197   -2.0615 H   0  0
    8.6843   10.0670   -1.0816 H   0  0
    8.2498   11.1890   -2.3033 H   0  0
    9.6176   10.0883   -2.5986 H   0  0
  1  9  1  0
  2  9  2  0
  3  6  1  0
  3  7  1  0
  3  8  1  0
  4  8  1  0
  5  8  2  0
  6  9  1  0
  4 10  1  0
  4 11  1  0
  5 12  1  0
  5 13  1  0
  6 14  1  0
  6 15  1  0
  7 16  1  0
  7 17  1  0
  7 18  1  0
M  CHG  2   1  -1   5   1
M  END
> <Name>
586

> <Binding Energy>
-4.9183

> <Ligand Energy>
6.6018

> <Protein Energy>
-7801.1566

> <Complex Energy>
-7799.4732

> <Complex Entropy>
-31.4756

> <Protein Entropy>
-31.4717

> <Ligand Entropy>
-17.0518

> <Entropic Energy>
17.0479

> <AbsoluteEnergy>
27.5085

> <ConfNumber>
21

> <Ionization pH>
7.5

> <IonizationIndex>
1

> <MOL_NUMBER>
663

> <NumberOfIonizations>
1

> <NumberOfStereoisomers>
1

> <NumberOfTautomers>
1

> <PUBCHEM_ATOM_DEF_STEREO_COUNT>
0

> <PUBCHEM_ATOM_UDEF_STEREO_COUNT>
0

> <PUBCHEM_BOND_DEF_STEREO_COUNT>
0

> <PUBCHEM_BOND_UDEF_STEREO_COUNT>
0

> <PUBCHEM_CACTVS_COMPLEXITY>
134

> <PUBCHEM_CACTVS_HBOND_ACCEPTOR>
3

> <PUBCHEM_CACTVS_HBOND_DONOR>
3

> <PUBCHEM_CACTVS_ROTATABLE_BOND>
3

> <PUBCHEM_CACTVS_SUBSKEYS>
AAADccBjMAAAAAAAAAAAAAAAAAAAAAAAAAAAAAAAAAAAAAAAAAAAHgAQCAAAAADBgAQDCANAAgAoAACQKAAAAACAAAABAACIAACCAAAACCAAAAAAAAIQAAAAAAAAAAAAAAAAAAAAAAAAAAAAAAAAAAAAAA==

> <PUBCHEM_CACTVS_TAUTO_COUNT>
1

> <PUBCHEM_CACTVS_TPSA>
90.4

> <PUBCHEM_COMPONENT_COUNT>
1

> <PUBCHEM_COMPOUND_CANONICALIZED>
1

> <PUBCHEM_COMPOUND_CID>
586

> <PUBCHEM_COORDINATE_TYPE>
1
5
255

> <PUBCHEM_EXACT_MASS>
131.069476538

> <PUBCHEM_HEAVY_ATOM_COUNT>
9

> <PUBCHEM_ISOTOPIC_ATOM_COUNT>
0

> <PUBCHEM_IUPAC_CAS_NAME>
2-[carbamimidoyl(methyl)amino]acetic acid

> <PUBCHEM_IUPAC_INCHI>
InChI=1S/C4H9N3O2/c1-7(4(5)6)2-3(8)9/h2H2,1H3,(H3,5,6)(H,8,9)

> <PUBCHEM_IUPAC_INCHIKEY>
CVSVTCORWBXHQV-UHFFFAOYSA-N

> <PUBCHEM_IUPAC_NAME>
2-[carbamimidoyl(methyl)amino]acetic acid

> <PUBCHEM_IUPAC_NAME_MARKUP>
2-[carbamimidoyl(methyl)amino]acetic acid

> <PUBCHEM_IUPAC_OPENEYE_NAME>
2-[carbamimidoyl(methyl)amino]acetic acid

> <PUBCHEM_IUPAC_SYSTEMATIC_NAME>
2-[carbamimidoyl(methyl)amino]ethanoic acid

> <PUBCHEM_IUPAC_TRADITIONAL_NAME>
2-[amidino(methyl)amino]acetic acid

> <PUBCHEM_MOLECULAR_FORMULA>
C4H9N3O2

> <PUBCHEM_MOLECULAR_WEIGHT>
131.13

> <PUBCHEM_MONOISOTOPIC_WEIGHT>
131.069476538

> <PUBCHEM_OPENEYE_CAN_SMILES>
CN(CC(=O)O)C(=N)N

> <PUBCHEM_OPENEYE_ISO_SMILES>
CN(CC(=O)O)C(=N)N

> <PUBCHEM_TOTAL_CHARGE>
0

> <PUBCHEM_XLOGP3_AA>
-1.2

> <RelativeEnergy>
16.2259

> <StereoisomerIndex>
1

> <TautomerIndex>
1

> <POSE_NUMBER>
1

> <LibDockScore>
64.5447

> <HotSpots>
5.01,10.27,-0.85,P,81,2
6.81,8.27,-5.05,P,59,5
8.01,10.07,-2.25,A,50,7

> <-In-Situ Starting Energy>
-46.3214665

> <-In-Situ Final Energy>
5.52588176

> <In-Situ Gradient>
0.0008210003534

> <Favorable Total>
6

> <Unfavorable Total>
0

> <Charge Total>
0

> <Hydrophobic Total>
0

> <HydrogenBond Total>
6

> <Other Total>
0

> <Favorable A:LYS6>
0

> <Favorable A:ARG55>
0

> <Favorable A:LEU58>
0

> <Favorable A:LEU61>
0

> <Favorable A:ILE62>
0

> <Favorable A:GLY64>
0

> <Favorable A:SER65>
0

> <Favorable A:TRP66>
0

> <Favorable A:SER69>
0

> <Favorable A:VAL70>
0

> <Favorable A:PRO73>
0

> <Favorable A:ALA74>
0

> <Favorable A:PHE76>
0

> <Favorable A:ALA77>
0

> <Favorable A:THR78>
0

> <Favorable A:GLU79>
0

> <Favorable A:PHE82>
0

> <Favorable A:ARG83>
0

> <Favorable A:LEU85>
0

> <Favorable A:THR86>
0

> <Favorable A:TRP89>
0

> <Favorable A:THR90>
1

> <Favorable A:ASN93>
0

> <Favorable A:HIS94>
1

> <Favorable A:SER96>
0

> <Favorable A:VAL97>
0

> <Favorable A:TRP98>
1

> <Favorable A:PHE140>
0

> <Favorable A:LEU141>
0

> <Favorable A:ASN144>
0

> <Favorable A:ILE148>
0

> <Favorable A:ILE150>
0

> <Favorable A:HIS151>
0

> <Favorable A:ILE152>
0

> <Favorable A:ALA154>
0

> <Favorable A:SER155>
0

> <Favorable A:ILE156>
0

> <Favorable A:GLY158>
0

> <Favorable A:TYR159>
0

> <Favorable A:ARG160>
0

> <Favorable A:ARG161>
0

> <Favorable A:ASN162>
0

> <Favorable A:LYS163>
0

> <Favorable A:SER167>
0

> <Favorable A:ASP168>
0

> <Favorable A:SER169>
0

> <Favorable A:ASN171>
0

> <Favorable A:PHE172>
0

> <Favorable A:THR173>
0

> <Favorable A:ARG174>
0

> <Favorable A:PHE175>
0

> <Favorable A:SER176>
0

> <Favorable A:SER177>
0

> <Favorable A:LEU178>
0

> <Favorable A:ILE179>
0

> <Favorable A:VAL180>
0

> <Favorable A:LEU181>
0

> <Favorable A:SER183>
2

> <Favorable A:THR184>
0

> <Favorable A:PHE186>
0

> <Favorable A:ILE187>
1

> <Favorable A:PHE188>
0

> <Favorable A:ILE189>
0

> <Favorable A:PRO190>
0

> <Favorable A:PHE191>
0

> <Favorable A:TYR240>
0

> <Favorable A:PHE243>
0

> <Favorable A:SER244>
0

> <Favorable A:PHE247>
0

> <Favorable A:PHE248>
0

> <Favorable A:VAL251>
0

> <Favorable A:TRP252>
0

> <Favorable A:SER254>
0

> <Favorable A:GLU255>
0

> <Favorable A:ARG256>
0

> <Favorable A:LEU257>
0

> <Favorable A:GLU258>
0

> <Favorable A:GLU259>
0

> <Favorable A:LEU261>
0

> <Favorable A:ILE262>
0

> <Favorable A:ILE263>
0

> <Favorable A:SER265>
0

> <Favorable A:GLN266>
0

> <Favorable A:MET268>
0

> <Favorable A:GLY269>
0

> <Favorable A:TYR272>
0

> <Favorable A:PRO273>
0

> <Unfavorable A:ARG55>
0

> <Unfavorable A:PRO73>
0

> <Unfavorable A:PHE76>
0

> <Unfavorable A:GLU79>
0

> <Unfavorable A:ARG83>
0

> <Unfavorable A:THR86>
0

> <Unfavorable A:TRP89>
0

> <Unfavorable A:THR90>
0

> <Unfavorable A:ASN93>
0

> <Unfavorable A:TRP98>
0

> <Unfavorable A:ASN144>
0

> <Unfavorable A:SER155>
0

> <Unfavorable A:GLY158>
0

> <Unfavorable A:TYR159>
0

> <Unfavorable A:ASN162>
0

> <Unfavorable A:ASP168>
0

> <Unfavorable A:ASN171>
0

> <Unfavorable A:THR173>
0

> <Unfavorable A:ARG174>
0

> <Unfavorable A:SER183>
0

> <Unfavorable A:THR184>
0

> <Unfavorable A:PHE186>
0

> <Unfavorable A:SER244>
0

> <Unfavorable A:SER254>
0

> <Unfavorable A:GLU255>
0

> <Unfavorable A:SER265>
0

> <Unfavorable A:GLN266>
0

> <Unfavorable A:GLY269>
0

> <Charge A:ARG55>
0

> <Charge A:PHE76>
0

> <Charge A:GLU79>
0

> <Charge A:PHE82>
0

> <Charge A:ARG83>
0

> <Charge A:TRP89>
0

> <Charge A:HIS94>
0

> <Charge A:TRP98>
0

> <Charge A:TYR159>
0

> <Charge A:ARG161>
0

> <Charge A:LYS163>
0

> <Charge A:ASP168>
0

> <Charge A:PHE172>
0

> <Charge A:ARG174>
0

> <Charge A:PHE175>
0

> <Charge A:PHE188>
0

> <Charge A:PHE247>
0

> <Charge A:PHE248>
0

> <Hydrophobic A:LEU58>
0

> <Hydrophobic A:LEU61>
0

> <Hydrophobic A:ILE62>
0

> <Hydrophobic A:TRP66>
0

> <Hydrophobic A:VAL70>
0

> <Hydrophobic A:PRO73>
0

> <Hydrophobic A:ALA74>
0

> <Hydrophobic A:PHE76>
0

> <Hydrophobic A:ALA77>
0

> <Hydrophobic A:THR78>
0

> <Hydrophobic A:PHE82>
0

> <Hydrophobic A:ARG83>
0

> <Hydrophobic A:LEU85>
0

> <Hydrophobic A:TRP89>
0

> <Hydrophobic A:THR90>
0

> <Hydrophobic A:ASN93>
0

> <Hydrophobic A:HIS94>
0

> <Hydrophobic A:VAL97>
0

> <Hydrophobic A:TRP98>
0

> <Hydrophobic A:PHE140>
0

> <Hydrophobic A:LEU141>
0

> <Hydrophobic A:ILE148>
0

> <Hydrophobic A:ILE150>
0

> <Hydrophobic A:HIS151>
0

> <Hydrophobic A:ILE152>
0

> <Hydrophobic A:ALA154>
0

> <Hydrophobic A:SER155>
0

> <Hydrophobic A:ILE156>
0

> <Hydrophobic A:GLY158>
0

> <Hydrophobic A:TYR159>
0

> <Hydrophobic A:ARG160>
0

> <Hydrophobic A:ARG161>
0

> <Hydrophobic A:ASP168>
0

> <Hydrophobic A:ASN171>
0

> <Hydrophobic A:PHE172>
0

> <Hydrophobic A:ARG174>
0

> <Hydrophobic A:PHE175>
0

> <Hydrophobic A:LEU178>
0

> <Hydrophobic A:ILE179>
0

> <Hydrophobic A:VAL180>
0

> <Hydrophobic A:LEU181>
0

> <Hydrophobic A:PHE186>
0

> <Hydrophobic A:ILE187>
0

> <Hydrophobic A:PHE188>
0

> <Hydrophobic A:ILE189>
0

> <Hydrophobic A:PRO190>
0

> <Hydrophobic A:PHE191>
0

> <Hydrophobic A:TYR240>
0

> <Hydrophobic A:PHE243>
0

> <Hydrophobic A:PHE247>
0

> <Hydrophobic A:PHE248>
0

> <Hydrophobic A:VAL251>
0

> <Hydrophobic A:TRP252>
0

> <Hydrophobic A:SER254>
0

> <Hydrophobic A:LEU261>
0

> <Hydrophobic A:ILE262>
0

> <Hydrophobic A:ILE263>
0

> <Hydrophobic A:TYR272>
0

> <Hydrophobic A:PRO273>
0

> <HydrogenBond A:LYS6>
0

> <HydrogenBond A:ARG55>
0

> <HydrogenBond A:GLY64>
0

> <HydrogenBond A:SER65>
0

> <HydrogenBond A:TRP66>
0

> <HydrogenBond A:SER69>
0

> <HydrogenBond A:PRO73>
0

> <HydrogenBond A:ALA74>
0

> <HydrogenBond A:PHE76>
0

> <HydrogenBond A:ALA77>
0

> <HydrogenBond A:THR78>
0

> <HydrogenBond A:GLU79>
0

> <HydrogenBond A:PHE82>
0

> <HydrogenBond A:ARG83>
0

> <HydrogenBond A:LEU85>
0

> <HydrogenBond A:THR86>
0

> <HydrogenBond A:TRP89>
0

> <HydrogenBond A:THR90>
1

> <HydrogenBond A:ASN93>
0

> <HydrogenBond A:HIS94>
1

> <HydrogenBond A:SER96>
0

> <HydrogenBond A:TRP98>
1

> <HydrogenBond A:ASN144>
0

> <HydrogenBond A:HIS151>
0

> <HydrogenBond A:ILE152>
0

> <HydrogenBond A:ALA154>
0

> <HydrogenBond A:SER155>
0

> <HydrogenBond A:ILE156>
0

> <HydrogenBond A:GLY158>
0

> <HydrogenBond A:TYR159>
0

> <HydrogenBond A:ASN162>
0

> <HydrogenBond A:LYS163>
0

> <HydrogenBond A:SER167>
0

> <HydrogenBond A:ASP168>
0

> <HydrogenBond A:SER169>
0

> <HydrogenBond A:ASN171>
0

> <HydrogenBond A:PHE172>
0

> <HydrogenBond A:THR173>
0

> <HydrogenBond A:ARG174>
0

> <HydrogenBond A:PHE175>
0

> <HydrogenBond A:SER176>
0

> <HydrogenBond A:SER177>
0

> <HydrogenBond A:ILE179>
0

> <HydrogenBond A:VAL180>
0

> <HydrogenBond A:SER183>
2

> <HydrogenBond A:THR184>
0

> <HydrogenBond A:PHE186>
0

> <HydrogenBond A:ILE187>
1

> <HydrogenBond A:PRO190>
0

> <HydrogenBond A:TYR240>
0

> <HydrogenBond A:PHE243>
0

> <HydrogenBond A:SER244>
0

> <HydrogenBond A:PHE247>
0

> <HydrogenBond A:VAL251>
0

> <HydrogenBond A:SER254>
0

> <HydrogenBond A:GLU255>
0

> <HydrogenBond A:ARG256>
0

> <HydrogenBond A:LEU257>
0

> <HydrogenBond A:GLU258>
0

> <HydrogenBond A:GLU259>
0

> <HydrogenBond A:ILE262>
0

> <HydrogenBond A:SER265>
0

> <HydrogenBond A:GLN266>
0

> <HydrogenBond A:MET268>
0

> <HydrogenBond A:GLY269>
0

> <HydrogenBond A:PRO273>
0

> <Other A:SER69>
0

> <Other A:TRP89>
0

> <Other A:TYR159>
0

> <Other A:PHE172>
0

> <Other A:SER176>
0

> <Other A:SER265>
0

$$$$
790
  SciTegic09122300493D

 15 16  0  0  0  0            999 V2000
    4.3094    1.3973   -0.1065 O   0  0  0  1  0  0
    6.3041   -0.8710    0.0394 N   0  0  0  1  0  0
    7.6706    1.5917    2.1506 N   0  0  0  1  0  0
    7.9370   -0.7917    1.5912 N   0  3  0  1  0  0
    5.7617    2.5850    1.1634 N   0  0  0  1  0  0
    6.2775    0.3394    0.6325 C   0  0  0  1  0  0
    7.3689    0.4298    1.5294 C   0  0  0  1  0  0
    5.3778    1.4461    0.5068 C   0  0  0  1  0  0
    7.2796   -1.5457    0.6860 C   0  0  0  1  0  0
    6.8747    2.6771    1.9486 C   0  0  0  1  0  0
    5.7065   -1.2087   -0.6952 H   0  0
    8.4918    1.6711    2.7180 H   0  0
    8.6960   -1.1027    2.1748 H   0  0
    7.5221   -2.5799    0.5137 H   0  0
    7.1235    3.6334    2.4127 H   0  0
  1  8  2  0
  2  6  1  0
  2  9  1  0
  3  7  1  0
  3 10  1  0
  4  7  1  0
  4  9  2  0
  5  8  1  0
  5 10  2  0
  6  7  2  0
  6  8  1  0
  2 11  1  0
  3 12  1  0
  4 13  1  0
  9 14  1  0
 10 15  1  0
M  CHG  1   4   1
M  END
> <Name>
790

> <Binding Energy>
-52.1905

> <Ligand Energy>
34.1839

> <Protein Energy>
-7801.1566

> <Complex Energy>
-7819.1632

> <Complex Entropy>
-31.4753

> <Protein Entropy>
-31.4717

> <Ligand Entropy>
-17.0172

> <Entropic Energy>
17.0136

> <AbsoluteEnergy>
68.2831

> <ConfNumber>
1

> <Ionization pH>
7.5

> <IonizationIndex>
1

> <MOL_NUMBER>
668

> <NumberOfIonizations>
1

> <NumberOfStereoisomers>
1

> <NumberOfTautomers>
5

> <PUBCHEM_ATOM_DEF_STEREO_COUNT>
0

> <PUBCHEM_ATOM_UDEF_STEREO_COUNT>
0

> <PUBCHEM_BONDANNOTATIONS>
2  6  8
2  9  8
3  10  8
3  7  8
4  7  8
4  9  8
5  10  8
5  8  8
6  7  8
6  8  8

> <PUBCHEM_BOND_DEF_STEREO_COUNT>
0

> <PUBCHEM_BOND_UDEF_STEREO_COUNT>
0

> <PUBCHEM_CACTVS_COMPLEXITY>
190

> <PUBCHEM_CACTVS_HBOND_ACCEPTOR>
2

> <PUBCHEM_CACTVS_HBOND_DONOR>
2

> <PUBCHEM_CACTVS_ROTATABLE_BOND>
0

> <PUBCHEM_CACTVS_SUBSKEYS>
AAADcYBjoAAAAAAAAAAAAAAAAAAAAWAAAAAgAAAAAAAAAEABgAAAHgAQAAAACAgBlgQFsBbJkACoAQdxdACAgC2XEKABUYGoVECASAhASCAUAIAIAAJAAGAAAAAAAAAAAAAAAAAAAAAAAAAAAAAAAAAAAA==

> <PUBCHEM_CACTVS_TAUTO_COUNT>
-1

> <PUBCHEM_CACTVS_TPSA>
70.1

> <PUBCHEM_COMPONENT_COUNT>
1

> <PUBCHEM_COMPOUND_CANONICALIZED>
1

> <PUBCHEM_COMPOUND_CID>
790

> <PUBCHEM_COORDINATE_TYPE>
1
5
255

> <PUBCHEM_EXACT_MASS>
136.03851076

> <PUBCHEM_HEAVY_ATOM_COUNT>
10

> <PUBCHEM_ISOTOPIC_ATOM_COUNT>
0

> <PUBCHEM_IUPAC_CAS_NAME>
3,7-dihydropurin-6-one

> <PUBCHEM_IUPAC_INCHI>
InChI=1S/C5H4N4O/c10-5-3-4(7-1-6-3)8-2-9-5/h1-2H,(H2,6,7,8,9,10)

> <PUBCHEM_IUPAC_INCHIKEY>
FDGQSTZJBFJUBT-UHFFFAOYSA-N

> <PUBCHEM_IUPAC_NAME>
3,7-dihydropurin-6-one

> <PUBCHEM_IUPAC_NAME_MARKUP>
3,7-dihydropurin-6-one

> <PUBCHEM_IUPAC_OPENEYE_NAME>
3,7-dihydropurin-6-one

> <PUBCHEM_IUPAC_SYSTEMATIC_NAME>
3,7-dihydropurin-6-one

> <PUBCHEM_IUPAC_TRADITIONAL_NAME>
3,7-dihydropurin-6-one

> <PUBCHEM_MOLECULAR_FORMULA>
C5H4N4O

> <PUBCHEM_MOLECULAR_WEIGHT>
136.11

> <PUBCHEM_MONOISOTOPIC_WEIGHT>
136.03851076

> <PUBCHEM_OPENEYE_CAN_SMILES>
C1=NC2=C(N1)C(=O)N=CN2

> <PUBCHEM_OPENEYE_ISO_SMILES>
C1=NC2=C(N1)C(=O)N=CN2

> <PUBCHEM_TOTAL_CHARGE>
0

> <PUBCHEM_XLOGP3>
-1.1

> <RelativeEnergy>
0

> <StereoisomerIndex>
1

> <TautomerIndex>
5

> <POSE_NUMBER>
1

> <LibDockScore>
55.968

> <HotSpots>
6.61,-0.93,-0.06,A,65,8
6.21,0.27,3.35,A,87,9
4.81,0.47,-1.05,A,56,10

> <-In-Situ Starting Energy>
-46.5266322

> <-In-Situ Final Energy>
15.257618

> <In-Situ Gradient>
0.0008148603578

> <Favorable Total>
9

> <Unfavorable Total>
0

> <Charge Total>
0

> <Hydrophobic Total>
4

> <HydrogenBond Total>
5

> <Other Total>
0

> <Favorable A:LYS6>
0

> <Favorable A:ARG55>
2

> <Favorable A:LEU58>
0

> <Favorable A:LEU61>
0

> <Favorable A:ILE62>
0

> <Favorable A:GLY64>
0

> <Favorable A:SER65>
0

> <Favorable A:TRP66>
0

> <Favorable A:SER69>
0

> <Favorable A:VAL70>
0

> <Favorable A:PRO73>
0

> <Favorable A:ALA74>
0

> <Favorable A:PHE76>
0

> <Favorable A:ALA77>
0

> <Favorable A:THR78>
0

> <Favorable A:GLU79>
0

> <Favorable A:PHE82>
0

> <Favorable A:ARG83>
0

> <Favorable A:LEU85>
0

> <Favorable A:THR86>
0

> <Favorable A:TRP89>
0

> <Favorable A:THR90>
0

> <Favorable A:ASN93>
0

> <Favorable A:HIS94>
0

> <Favorable A:SER96>
0

> <Favorable A:VAL97>
1

> <Favorable A:TRP98>
0

> <Favorable A:PHE140>
0

> <Favorable A:LEU141>
0

> <Favorable A:ASN144>
0

> <Favorable A:ILE148>
0

> <Favorable A:ILE150>
0

> <Favorable A:HIS151>
0

> <Favorable A:ILE152>
0

> <Favorable A:ALA154>
0

> <Favorable A:SER155>
0

> <Favorable A:ILE156>
0

> <Favorable A:GLY158>
0

> <Favorable A:TYR159>
0

> <Favorable A:ARG160>
0

> <Favorable A:ARG161>
0

> <Favorable A:ASN162>
0

> <Favorable A:LYS163>
0

> <Favorable A:SER167>
0

> <Favorable A:ASP168>
0

> <Favorable A:SER169>
0

> <Favorable A:ASN171>
0

> <Favorable A:PHE172>
0

> <Favorable A:THR173>
0

> <Favorable A:ARG174>
0

> <Favorable A:PHE175>
0

> <Favorable A:SER176>
0

> <Favorable A:SER177>
0

> <Favorable A:LEU178>
0

> <Favorable A:ILE179>
0

> <Favorable A:VAL180>
0

> <Favorable A:LEU181>
0

> <Favorable A:SER183>
0

> <Favorable A:THR184>
0

> <Favorable A:PHE186>
0

> <Favorable A:ILE187>
0

> <Favorable A:PHE188>
0

> <Favorable A:ILE189>
0

> <Favorable A:PRO190>
0

> <Favorable A:PHE191>
0

> <Favorable A:TYR240>
0

> <Favorable A:PHE243>
1

> <Favorable A:SER244>
0

> <Favorable A:PHE247>
1

> <Favorable A:PHE248>
0

> <Favorable A:VAL251>
0

> <Favorable A:TRP252>
0

> <Favorable A:SER254>
0

> <Favorable A:GLU255>
0

> <Favorable A:ARG256>
0

> <Favorable A:LEU257>
0

> <Favorable A:GLU258>
0

> <Favorable A:GLU259>
0

> <Favorable A:LEU261>
0

> <Favorable A:ILE262>
0

> <Favorable A:ILE263>
0

> <Favorable A:SER265>
0

> <Favorable A:GLN266>
0

> <Favorable A:MET268>
1

> <Favorable A:GLY269>
1

> <Favorable A:TYR272>
2

> <Favorable A:PRO273>
0

> <Unfavorable A:ARG55>
0

> <Unfavorable A:PRO73>
0

> <Unfavorable A:PHE76>
0

> <Unfavorable A:GLU79>
0

> <Unfavorable A:ARG83>
0

> <Unfavorable A:THR86>
0

> <Unfavorable A:TRP89>
0

> <Unfavorable A:THR90>
0

> <Unfavorable A:ASN93>
0

> <Unfavorable A:TRP98>
0

> <Unfavorable A:ASN144>
0

> <Unfavorable A:SER155>
0

> <Unfavorable A:GLY158>
0

> <Unfavorable A:TYR159>
0

> <Unfavorable A:ASN162>
0

> <Unfavorable A:ASP168>
0

> <Unfavorable A:ASN171>
0

> <Unfavorable A:THR173>
0

> <Unfavorable A:ARG174>
0

> <Unfavorable A:SER183>
0

> <Unfavorable A:THR184>
0

> <Unfavorable A:PHE186>
0

> <Unfavorable A:SER244>
0

> <Unfavorable A:SER254>
0

> <Unfavorable A:GLU255>
0

> <Unfavorable A:SER265>
0

> <Unfavorable A:GLN266>
0

> <Unfavorable A:GLY269>
0

> <Charge A:ARG55>
0

> <Charge A:PHE76>
0

> <Charge A:GLU79>
0

> <Charge A:PHE82>
0

> <Charge A:ARG83>
0

> <Charge A:TRP89>
0

> <Charge A:HIS94>
0

> <Charge A:TRP98>
0

> <Charge A:TYR159>
0

> <Charge A:ARG161>
0

> <Charge A:LYS163>
0

> <Charge A:ASP168>
0

> <Charge A:PHE172>
0

> <Charge A:ARG174>
0

> <Charge A:PHE175>
0

> <Charge A:PHE188>
0

> <Charge A:PHE247>
0

> <Charge A:PHE248>
0

> <Hydrophobic A:LEU58>
0

> <Hydrophobic A:LEU61>
0

> <Hydrophobic A:ILE62>
0

> <Hydrophobic A:TRP66>
0

> <Hydrophobic A:VAL70>
0

> <Hydrophobic A:PRO73>
0

> <Hydrophobic A:ALA74>
0

> <Hydrophobic A:PHE76>
0

> <Hydrophobic A:ALA77>
0

> <Hydrophobic A:THR78>
0

> <Hydrophobic A:PHE82>
0

> <Hydrophobic A:ARG83>
0

> <Hydrophobic A:LEU85>
0

> <Hydrophobic A:TRP89>
0

> <Hydrophobic A:THR90>
0

> <Hydrophobic A:ASN93>
0

> <Hydrophobic A:HIS94>
0

> <Hydrophobic A:VAL97>
1

> <Hydrophobic A:TRP98>
0

> <Hydrophobic A:PHE140>
0

> <Hydrophobic A:LEU141>
0

> <Hydrophobic A:ILE148>
0

> <Hydrophobic A:ILE150>
0

> <Hydrophobic A:HIS151>
0

> <Hydrophobic A:ILE152>
0

> <Hydrophobic A:ALA154>
0

> <Hydrophobic A:SER155>
0

> <Hydrophobic A:ILE156>
0

> <Hydrophobic A:GLY158>
0

> <Hydrophobic A:TYR159>
0

> <Hydrophobic A:ARG160>
0

> <Hydrophobic A:ARG161>
0

> <Hydrophobic A:ASP168>
0

> <Hydrophobic A:ASN171>
0

> <Hydrophobic A:PHE172>
0

> <Hydrophobic A:ARG174>
0

> <Hydrophobic A:PHE175>
0

> <Hydrophobic A:LEU178>
0

> <Hydrophobic A:ILE179>
0

> <Hydrophobic A:VAL180>
0

> <Hydrophobic A:LEU181>
0

> <Hydrophobic A:PHE186>
0

> <Hydrophobic A:ILE187>
0

> <Hydrophobic A:PHE188>
0

> <Hydrophobic A:ILE189>
0

> <Hydrophobic A:PRO190>
0

> <Hydrophobic A:PHE191>
0

> <Hydrophobic A:TYR240>
0

> <Hydrophobic A:PHE243>
0

> <Hydrophobic A:PHE247>
1

> <Hydrophobic A:PHE248>
0

> <Hydrophobic A:VAL251>
0

> <Hydrophobic A:TRP252>
0

> <Hydrophobic A:SER254>
0

> <Hydrophobic A:LEU261>
0

> <Hydrophobic A:ILE262>
0

> <Hydrophobic A:ILE263>
0

> <Hydrophobic A:TYR272>
2

> <Hydrophobic A:PRO273>
0

> <HydrogenBond A:LYS6>
0

> <HydrogenBond A:ARG55>
2

> <HydrogenBond A:GLY64>
0

> <HydrogenBond A:SER65>
0

> <HydrogenBond A:TRP66>
0

> <HydrogenBond A:SER69>
0

> <HydrogenBond A:PRO73>
0

> <HydrogenBond A:ALA74>
0

> <HydrogenBond A:PHE76>
0

> <HydrogenBond A:ALA77>
0

> <HydrogenBond A:THR78>
0

> <HydrogenBond A:GLU79>
0

> <HydrogenBond A:PHE82>
0

> <HydrogenBond A:ARG83>
0

> <HydrogenBond A:LEU85>
0

> <HydrogenBond A:THR86>
0

> <HydrogenBond A:TRP89>
0

> <HydrogenBond A:THR90>
0

> <HydrogenBond A:ASN93>
0

> <HydrogenBond A:HIS94>
0

> <HydrogenBond A:SER96>
0

> <HydrogenBond A:TRP98>
0

> <HydrogenBond A:ASN144>
0

> <HydrogenBond A:HIS151>
0

> <HydrogenBond A:ILE152>
0

> <HydrogenBond A:ALA154>
0

> <HydrogenBond A:SER155>
0

> <HydrogenBond A:ILE156>
0

> <HydrogenBond A:GLY158>
0

> <HydrogenBond A:TYR159>
0

> <HydrogenBond A:ASN162>
0

> <HydrogenBond A:LYS163>
0

> <HydrogenBond A:SER167>
0

> <HydrogenBond A:ASP168>
0

> <HydrogenBond A:SER169>
0

> <HydrogenBond A:ASN171>
0

> <HydrogenBond A:PHE172>
0

> <HydrogenBond A:THR173>
0

> <HydrogenBond A:ARG174>
0

> <HydrogenBond A:PHE175>
0

> <HydrogenBond A:SER176>
0

> <HydrogenBond A:SER177>
0

> <HydrogenBond A:ILE179>
0

> <HydrogenBond A:VAL180>
0

> <HydrogenBond A:SER183>
0

> <HydrogenBond A:THR184>
0

> <HydrogenBond A:PHE186>
0

> <HydrogenBond A:ILE187>
0

> <HydrogenBond A:PRO190>
0

> <HydrogenBond A:TYR240>
0

> <HydrogenBond A:PHE243>
1

> <HydrogenBond A:SER244>
0

> <HydrogenBond A:PHE247>
0

> <HydrogenBond A:VAL251>
0

> <HydrogenBond A:SER254>
0

> <HydrogenBond A:GLU255>
0

> <HydrogenBond A:ARG256>
0

> <HydrogenBond A:LEU257>
0

> <HydrogenBond A:GLU258>
0

> <HydrogenBond A:GLU259>
0

> <HydrogenBond A:ILE262>
0

> <HydrogenBond A:SER265>
0

> <HydrogenBond A:GLN266>
0

> <HydrogenBond A:MET268>
1

> <HydrogenBond A:GLY269>
1

> <HydrogenBond A:PRO273>
0

> <Other A:SER69>
0

> <Other A:TRP89>
0

> <Other A:TYR159>
0

> <Other A:PHE172>
0

> <Other A:SER176>
0

> <Other A:SER265>
0

$$$$
5962
  SciTegic09122300493D

 25 24  0  0  0  0            999 V2000
    6.3549   12.6987   -0.1053 O   0  5  0  1  0  0
    6.9024   12.3406   -2.1395 O   0  0  0  1  0  0
    5.3455   10.0831   -0.3081 N   0  3  0  1  0  0
    9.3453    7.5640   -5.3195 N   0  3  0  1  0  0
    6.8314    9.6418   -3.2563 C   0  0  0  1  0  0
    7.3458    9.6186   -1.8162 C   0  0  0  1  0  0
    7.4375    8.4874   -4.0645 C   0  0  0  1  0  0
    6.6849   10.4579   -0.7106 C   0  0  1  1  0  0
    8.8914    8.6883   -4.5011 C   0  0  0  1  0  0
    6.6728   11.9407   -1.0048 C   0  0  0  1  0  0
    5.2192    9.0537   -0.3003 H   0  0
    4.6927   10.5494   -0.9687 H   0  0
    5.1783   10.4761    0.6417 H   0  0
    8.6374    7.3571   -6.0521 H   0  0
    9.4566    6.7324   -4.7051 H   0  0
   10.2577    7.7711   -5.7792 H   0  0
    5.7607    9.5008   -3.2325 H   0  0
    7.0126   10.5889   -3.7621 H   0  0
    8.4080    9.8621   -1.8352 H   0  0
    7.2143    8.5990   -1.4984 H   0  0
    6.8045    8.3135   -4.9327 H   0  0
    7.3963    7.5818   -3.4632 H   0  0
    7.2839   10.3040    0.1800 H   0  0
    9.0072    9.5981   -5.0828 H   0  0
    9.5526    8.7707   -3.6365 H   0  0
  1 10  1  0
  2 10  2  0
  3  8  1  0
  4  9  1  0
  5  6  1  0
  5  7  1  0
  6  8  1  0
  7  9  1  0
  8 10  1  0
  3 11  1  0
  3 12  1  0
  3 13  1  0
  4 14  1  0
  4 15  1  0
  4 16  1  0
  5 17  1  0
  5 18  1  0
  6 19  1  0
  6 20  1  0
  7 21  1  0
  7 22  1  0
  8 23  1  0
  9 24  1  0
  9 25  1  0
M  CHG  3   1  -1   3   1   4   1
M  END
> <Name>
5962

> <Binding Energy>
-13.4877

> <Ligand Energy>
-76.2137

> <Protein Energy>
-7801.1566

> <Complex Energy>
-7890.858

> <Complex Entropy>
-31.4762

> <Protein Entropy>
-31.4717

> <Ligand Entropy>
-17.5488

> <Entropic Energy>
17.5443

> <AbsoluteEnergy>
7.8081

> <ConfNumber>
64

> <Ionization pH>
7.5

> <IonizationIndex>
1

> <MOL_NUMBER>
683

> <NumberOfIonizations>
1

> <NumberOfStereoisomers>
1

> <NumberOfTautomers>
1

> <PUBCHEM_ATOM_DEF_STEREO_COUNT>
1

> <PUBCHEM_ATOM_UDEF_STEREO_COUNT>
0

> <PUBCHEM_BONDANNOTATIONS>
8  3  6

> <PUBCHEM_BOND_DEF_STEREO_COUNT>
0

> <PUBCHEM_BOND_UDEF_STEREO_COUNT>
0

> <PUBCHEM_CACTVS_COMPLEXITY>
106

> <PUBCHEM_CACTVS_HBOND_ACCEPTOR>
4

> <PUBCHEM_CACTVS_HBOND_DONOR>
3

> <PUBCHEM_CACTVS_ROTATABLE_BOND>
5

> <PUBCHEM_CACTVS_SUBSKEYS>
AAADccBjMAAAAAAAAAAAAAAAAAAAAAAAAAAAAAAAAAAAAAAAAAAAHgAQCAAACCjBgAQACABAAgAIAACQCAAAAAAAAAAAAIGAAAACABIAgAAAQAAEEAAAAAGYSAAAAAAAAAAAAAAAAAAAAAAAAAAAAAAAAA==

> <PUBCHEM_CACTVS_TAUTO_COUNT>
4

> <PUBCHEM_CACTVS_TPSA>
89.3

> <PUBCHEM_COMPONENT_COUNT>
1

> <PUBCHEM_COMPOUND_CANONICALIZED>
1

> <PUBCHEM_COMPOUND_CID>
5962

> <PUBCHEM_COORDINATE_TYPE>
1
5
255

> <PUBCHEM_EXACT_MASS>
146.105527694

> <PUBCHEM_HEAVY_ATOM_COUNT>
10

> <PUBCHEM_ISOTOPIC_ATOM_COUNT>
0

> <PUBCHEM_IUPAC_CAS_NAME>
(2S)-2,6-diaminohexanoic acid

> <PUBCHEM_IUPAC_INCHI>
InChI=1S/C6H14N2O2/c7-4-2-1-3-5(8)6(9)10/h5H,1-4,7-8H2,(H,9,10)/t5-/m0/s1

> <PUBCHEM_IUPAC_INCHIKEY>
KDXKERNSBIXSRK-YFKPBYRVSA-N

> <PUBCHEM_IUPAC_NAME>
(2S)-2,6-diaminohexanoic acid

> <PUBCHEM_IUPAC_NAME_MARKUP>
(2<I>S</I>)-2,6-diaminohexanoic acid

> <PUBCHEM_IUPAC_OPENEYE_NAME>
(2S)-2,6-diaminohexanoic acid

> <PUBCHEM_IUPAC_SYSTEMATIC_NAME>
(2S)-2,6-bis(azanyl)hexanoic acid

> <PUBCHEM_IUPAC_TRADITIONAL_NAME>
(2S)-2,6-diaminohexanoic acid

> <PUBCHEM_MOLECULAR_FORMULA>
C6H14N2O2

> <PUBCHEM_MOLECULAR_WEIGHT>
146.19

> <PUBCHEM_MONOISOTOPIC_WEIGHT>
146.105527694

> <PUBCHEM_OPENEYE_CAN_SMILES>
C(CCN)CC(C(=O)O)N

> <PUBCHEM_OPENEYE_ISO_SMILES>
C(CCN)C[C@@H](C(=O)O)N

> <PUBCHEM_TOTAL_CHARGE>
0

> <PUBCHEM_XLOGP3>
-3

> <RelativeEnergy>
4.14112

> <StereoisomerIndex>
1

> <TautomerIndex>
1

> <POSE_NUMBER>
1

> <LibDockScore>
82.0198

> <HotSpots>
8.01,10.07,-2.25,A,50,6
8.41,8.07,-4.86,A,38,9
6.61,11.87,-1.46,A,53,10

> <-In-Situ Starting Energy>
-312.789184

> <-In-Situ Final Energy>
37.3772796

> <In-Situ Gradient>
0.0008702402069

> <Favorable Total>
4

> <Unfavorable Total>
0

> <Charge Total>
0

> <Hydrophobic Total>
0

> <HydrogenBond Total>
4

> <Other Total>
0

> <Favorable A:LYS6>
0

> <Favorable A:ARG55>
0

> <Favorable A:LEU58>
0

> <Favorable A:LEU61>
0

> <Favorable A:ILE62>
0

> <Favorable A:GLY64>
0

> <Favorable A:SER65>
0

> <Favorable A:TRP66>
0

> <Favorable A:SER69>
0

> <Favorable A:VAL70>
0

> <Favorable A:PRO73>
0

> <Favorable A:ALA74>
0

> <Favorable A:PHE76>
0

> <Favorable A:ALA77>
0

> <Favorable A:THR78>
0

> <Favorable A:GLU79>
0

> <Favorable A:PHE82>
0

> <Favorable A:ARG83>
0

> <Favorable A:LEU85>
0

> <Favorable A:THR86>
0

> <Favorable A:TRP89>
0

> <Favorable A:THR90>
0

> <Favorable A:ASN93>
0

> <Favorable A:HIS94>
1

> <Favorable A:SER96>
0

> <Favorable A:VAL97>
0

> <Favorable A:TRP98>
1

> <Favorable A:PHE140>
0

> <Favorable A:LEU141>
0

> <Favorable A:ASN144>
1

> <Favorable A:ILE148>
0

> <Favorable A:ILE150>
0

> <Favorable A:HIS151>
0

> <Favorable A:ILE152>
0

> <Favorable A:ALA154>
0

> <Favorable A:SER155>
0

> <Favorable A:ILE156>
0

> <Favorable A:GLY158>
0

> <Favorable A:TYR159>
0

> <Favorable A:ARG160>
0

> <Favorable A:ARG161>
0

> <Favorable A:ASN162>
0

> <Favorable A:LYS163>
0

> <Favorable A:SER167>
0

> <Favorable A:ASP168>
0

> <Favorable A:SER169>
0

> <Favorable A:ASN171>
0

> <Favorable A:PHE172>
0

> <Favorable A:THR173>
0

> <Favorable A:ARG174>
0

> <Favorable A:PHE175>
0

> <Favorable A:SER176>
0

> <Favorable A:SER177>
0

> <Favorable A:LEU178>
0

> <Favorable A:ILE179>
0

> <Favorable A:VAL180>
0

> <Favorable A:LEU181>
0

> <Favorable A:SER183>
0

> <Favorable A:THR184>
0

> <Favorable A:PHE186>
1

> <Favorable A:ILE187>
0

> <Favorable A:PHE188>
0

> <Favorable A:ILE189>
0

> <Favorable A:PRO190>
0

> <Favorable A:PHE191>
0

> <Favorable A:TYR240>
0

> <Favorable A:PHE243>
0

> <Favorable A:SER244>
0

> <Favorable A:PHE247>
0

> <Favorable A:PHE248>
0

> <Favorable A:VAL251>
0

> <Favorable A:TRP252>
0

> <Favorable A:SER254>
0

> <Favorable A:GLU255>
0

> <Favorable A:ARG256>
0

> <Favorable A:LEU257>
0

> <Favorable A:GLU258>
0

> <Favorable A:GLU259>
0

> <Favorable A:LEU261>
0

> <Favorable A:ILE262>
0

> <Favorable A:ILE263>
0

> <Favorable A:SER265>
0

> <Favorable A:GLN266>
0

> <Favorable A:MET268>
0

> <Favorable A:GLY269>
0

> <Favorable A:TYR272>
0

> <Favorable A:PRO273>
0

> <Unfavorable A:ARG55>
0

> <Unfavorable A:PRO73>
0

> <Unfavorable A:PHE76>
0

> <Unfavorable A:GLU79>
0

> <Unfavorable A:ARG83>
0

> <Unfavorable A:THR86>
0

> <Unfavorable A:TRP89>
0

> <Unfavorable A:THR90>
0

> <Unfavorable A:ASN93>
0

> <Unfavorable A:TRP98>
0

> <Unfavorable A:ASN144>
0

> <Unfavorable A:SER155>
0

> <Unfavorable A:GLY158>
0

> <Unfavorable A:TYR159>
0

> <Unfavorable A:ASN162>
0

> <Unfavorable A:ASP168>
0

> <Unfavorable A:ASN171>
0

> <Unfavorable A:THR173>
0

> <Unfavorable A:ARG174>
0

> <Unfavorable A:SER183>
0

> <Unfavorable A:THR184>
0

> <Unfavorable A:PHE186>
0

> <Unfavorable A:SER244>
0

> <Unfavorable A:SER254>
0

> <Unfavorable A:GLU255>
0

> <Unfavorable A:SER265>
0

> <Unfavorable A:GLN266>
0

> <Unfavorable A:GLY269>
0

> <Charge A:ARG55>
0

> <Charge A:PHE76>
0

> <Charge A:GLU79>
0

> <Charge A:PHE82>
0

> <Charge A:ARG83>
0

> <Charge A:TRP89>
0

> <Charge A:HIS94>
0

> <Charge A:TRP98>
0

> <Charge A:TYR159>
0

> <Charge A:ARG161>
0

> <Charge A:LYS163>
0

> <Charge A:ASP168>
0

> <Charge A:PHE172>
0

> <Charge A:ARG174>
0

> <Charge A:PHE175>
0

> <Charge A:PHE188>
0

> <Charge A:PHE247>
0

> <Charge A:PHE248>
0

> <Hydrophobic A:LEU58>
0

> <Hydrophobic A:LEU61>
0

> <Hydrophobic A:ILE62>
0

> <Hydrophobic A:TRP66>
0

> <Hydrophobic A:VAL70>
0

> <Hydrophobic A:PRO73>
0

> <Hydrophobic A:ALA74>
0

> <Hydrophobic A:PHE76>
0

> <Hydrophobic A:ALA77>
0

> <Hydrophobic A:THR78>
0

> <Hydrophobic A:PHE82>
0

> <Hydrophobic A:ARG83>
0

> <Hydrophobic A:LEU85>
0

> <Hydrophobic A:TRP89>
0

> <Hydrophobic A:THR90>
0

> <Hydrophobic A:ASN93>
0

> <Hydrophobic A:HIS94>
0

> <Hydrophobic A:VAL97>
0

> <Hydrophobic A:TRP98>
0

> <Hydrophobic A:PHE140>
0

> <Hydrophobic A:LEU141>
0

> <Hydrophobic A:ILE148>
0

> <Hydrophobic A:ILE150>
0

> <Hydrophobic A:HIS151>
0

> <Hydrophobic A:ILE152>
0

> <Hydrophobic A:ALA154>
0

> <Hydrophobic A:SER155>
0

> <Hydrophobic A:ILE156>
0

> <Hydrophobic A:GLY158>
0

> <Hydrophobic A:TYR159>
0

> <Hydrophobic A:ARG160>
0

> <Hydrophobic A:ARG161>
0

> <Hydrophobic A:ASP168>
0

> <Hydrophobic A:ASN171>
0

> <Hydrophobic A:PHE172>
0

> <Hydrophobic A:ARG174>
0

> <Hydrophobic A:PHE175>
0

> <Hydrophobic A:LEU178>
0

> <Hydrophobic A:ILE179>
0

> <Hydrophobic A:VAL180>
0

> <Hydrophobic A:LEU181>
0

> <Hydrophobic A:PHE186>
0

> <Hydrophobic A:ILE187>
0

> <Hydrophobic A:PHE188>
0

> <Hydrophobic A:ILE189>
0

> <Hydrophobic A:PRO190>
0

> <Hydrophobic A:PHE191>
0

> <Hydrophobic A:TYR240>
0

> <Hydrophobic A:PHE243>
0

> <Hydrophobic A:PHE247>
0

> <Hydrophobic A:PHE248>
0

> <Hydrophobic A:VAL251>
0

> <Hydrophobic A:TRP252>
0

> <Hydrophobic A:SER254>
0

> <Hydrophobic A:LEU261>
0

> <Hydrophobic A:ILE262>
0

> <Hydrophobic A:ILE263>
0

> <Hydrophobic A:TYR272>
0

> <Hydrophobic A:PRO273>
0

> <HydrogenBond A:LYS6>
0

> <HydrogenBond A:ARG55>
0

> <HydrogenBond A:GLY64>
0

> <HydrogenBond A:SER65>
0

> <HydrogenBond A:TRP66>
0

> <HydrogenBond A:SER69>
0

> <HydrogenBond A:PRO73>
0

> <HydrogenBond A:ALA74>
0

> <HydrogenBond A:PHE76>
0

> <HydrogenBond A:ALA77>
0

> <HydrogenBond A:THR78>
0

> <HydrogenBond A:GLU79>
0

> <HydrogenBond A:PHE82>
0

> <HydrogenBond A:ARG83>
0

> <HydrogenBond A:LEU85>
0

> <HydrogenBond A:THR86>
0

> <HydrogenBond A:TRP89>
0

> <HydrogenBond A:THR90>
0

> <HydrogenBond A:ASN93>
0

> <HydrogenBond A:HIS94>
1

> <HydrogenBond A:SER96>
0

> <HydrogenBond A:TRP98>
1

> <HydrogenBond A:ASN144>
1

> <HydrogenBond A:HIS151>
0

> <HydrogenBond A:ILE152>
0

> <HydrogenBond A:ALA154>
0

> <HydrogenBond A:SER155>
0

> <HydrogenBond A:ILE156>
0

> <HydrogenBond A:GLY158>
0

> <HydrogenBond A:TYR159>
0

> <HydrogenBond A:ASN162>
0

> <HydrogenBond A:LYS163>
0

> <HydrogenBond A:SER167>
0

> <HydrogenBond A:ASP168>
0

> <HydrogenBond A:SER169>
0

> <HydrogenBond A:ASN171>
0

> <HydrogenBond A:PHE172>
0

> <HydrogenBond A:THR173>
0

> <HydrogenBond A:ARG174>
0

> <HydrogenBond A:PHE175>
0

> <HydrogenBond A:SER176>
0

> <HydrogenBond A:SER177>
0

> <HydrogenBond A:ILE179>
0

> <HydrogenBond A:VAL180>
0

> <HydrogenBond A:SER183>
0

> <HydrogenBond A:THR184>
0

> <HydrogenBond A:PHE186>
1

> <HydrogenBond A:ILE187>
0

> <HydrogenBond A:PRO190>
0

> <HydrogenBond A:TYR240>
0

> <HydrogenBond A:PHE243>
0

> <HydrogenBond A:SER244>
0

> <HydrogenBond A:PHE247>
0

> <HydrogenBond A:VAL251>
0

> <HydrogenBond A:SER254>
0

> <HydrogenBond A:GLU255>
0

> <HydrogenBond A:ARG256>
0

> <HydrogenBond A:LEU257>
0

> <HydrogenBond A:GLU258>
0

> <HydrogenBond A:GLU259>
0

> <HydrogenBond A:ILE262>
0

> <HydrogenBond A:SER265>
0

> <HydrogenBond A:GLN266>
0

> <HydrogenBond A:MET268>
0

> <HydrogenBond A:GLY269>
0

> <HydrogenBond A:PRO273>
0

> <Other A:SER69>
0

> <Other A:TRP89>
0

> <Other A:TYR159>
0

> <Other A:PHE172>
0

> <Other A:SER176>
0

> <Other A:SER265>
0

$$$$
6274
  SciTegic09122300493D

 20 20  0  0  0  0            999 V2000
    9.1657    8.4102   -6.2523 O   0  5  0  1  0  0
   10.0549   10.1179   -5.3057 O   0  0  0  1  0  0
    7.0510   10.5441   -1.5693 N   0  0  0  1  0  0
    9.5406    9.3494   -2.9540 N   0  3  0  1  0  0
    6.0468    8.9403   -0.3874 N   0  0  0  1  0  0
    7.2384    9.4625   -3.8484 C   0  0  0  1  0  0
    8.6347    8.8236   -3.9584 C   0  0  1  1  0  0
    6.8251    9.4932   -2.3925 C   0  0  0  1  0  0
    9.3196    9.1361   -5.2842 C   0  0  0  1  0  0
    6.1903    8.4839   -1.6506 C   0  0  0  1  0  0
    6.5740   10.1743   -0.3657 C   0  0  0  1  0  0
    7.4326   11.4199   -1.7800 H   0  0
    9.0249    9.8629   -2.2142 H   0  0
   10.1446    9.9779   -3.5250 H   0  0
   10.1770    8.6456   -2.5194 H   0  0
    6.5116    8.8942   -4.4299 H   0  0
    7.2236   10.4808   -4.2345 H   0  0
    8.5591    7.7481   -3.8405 H   0  0
    5.8705    7.5144   -1.9987 H   0  0
    6.6043   10.7882    0.5236 H   0  0
  1  9  1  0
  2  9  2  0
  3  8  1  0
  3 11  1  0
  4  7  1  0
  5 10  1  0
  5 11  2  0
  6  7  1  0
  6  8  1  0
  7  9  1  0
  8 10  2  0
  3 12  1  0
  4 13  1  0
  4 14  1  0
  4 15  1  0
  6 16  1  0
  6 17  1  0
  7 18  1  0
 10 19  1  0
 11 20  1  0
M  CHG  2   1  -1   4   1
M  END
> <Name>
6274

> <Binding Energy>
-2.9287

> <Ligand Energy>
-103.8048

> <Protein Energy>
-7801.1566

> <Complex Energy>
-7907.8901

> <Complex Entropy>
-31.4764

> <Protein Entropy>
-31.4717

> <Ligand Entropy>
-17.4939

> <Entropic Energy>
17.4892

> <AbsoluteEnergy>
3.33247

> <ConfNumber>
26

> <Ionization pH>
7.5

> <IonizationIndex>
1

> <MOL_NUMBER>
690

> <NumberOfIonizations>
1

> <NumberOfStereoisomers>
1

> <NumberOfTautomers>
2

> <PUBCHEM_ATOM_DEF_STEREO_COUNT>
1

> <PUBCHEM_ATOM_UDEF_STEREO_COUNT>
0

> <PUBCHEM_BONDANNOTATIONS>
3  11  8
3  8  8
7  4  5
5  10  8
5  11  8
8  10  8

> <PUBCHEM_BOND_DEF_STEREO_COUNT>
0

> <PUBCHEM_BOND_UDEF_STEREO_COUNT>
0

> <PUBCHEM_CACTVS_COMPLEXITY>
151

> <PUBCHEM_CACTVS_HBOND_ACCEPTOR>
4

> <PUBCHEM_CACTVS_HBOND_DONOR>
3

> <PUBCHEM_CACTVS_ROTATABLE_BOND>
3

> <PUBCHEM_CACTVS_SUBSKEYS>
AAADccBjMAAAAAAAAAAAAAAAAAAAAWAAAAAAAAAAAAAAAAABgAAAHgAQCAAACCjBlgQtmBbJkgCoART3bAAAgC2xEqABUYG4cAiCaBJA2QGUQAAMkAJAQCC8EQIAAAAAAAAAAAAAAAAAAAAAAAAAAAAAAA==

> <PUBCHEM_CACTVS_TAUTO_COUNT>
2

> <PUBCHEM_CACTVS_TPSA>
92

> <PUBCHEM_COMPONENT_COUNT>
1

> <PUBCHEM_COMPOUND_CANONICALIZED>
1

> <PUBCHEM_COMPOUND_CID>
6274

> <PUBCHEM_COORDINATE_TYPE>
1
5
255

> <PUBCHEM_EXACT_MASS>
155.069476538

> <PUBCHEM_HEAVY_ATOM_COUNT>
11

> <PUBCHEM_ISOTOPIC_ATOM_COUNT>
0

> <PUBCHEM_IUPAC_CAS_NAME>
(2S)-2-amino-3-(1H-imidazol-5-yl)propanoic acid

> <PUBCHEM_IUPAC_INCHI>
InChI=1S/C6H9N3O2/c7-5(6(10)11)1-4-2-8-3-9-4/h2-3,5H,1,7H2,(H,8,9)(H,10,11)/t5-/m0/s1

> <PUBCHEM_IUPAC_INCHIKEY>
HNDVDQJCIGZPNO-YFKPBYRVSA-N

> <PUBCHEM_IUPAC_NAME>
(2S)-2-amino-3-(1H-imidazol-5-yl)propanoic acid

> <PUBCHEM_IUPAC_NAME_MARKUP>
(2<I>S</I>)-2-amino-3-(1<I>H</I>-imidazol-5-yl)propanoic acid

> <PUBCHEM_IUPAC_OPENEYE_NAME>
(2S)-2-amino-3-(1H-imidazol-5-yl)propanoic acid

> <PUBCHEM_IUPAC_SYSTEMATIC_NAME>
(2S)-2-azanyl-3-(1H-imidazol-5-yl)propanoic acid

> <PUBCHEM_IUPAC_TRADITIONAL_NAME>
(2S)-2-amino-3-(1H-imidazol-5-yl)propionic acid

> <PUBCHEM_MOLECULAR_FORMULA>
C6H9N3O2

> <PUBCHEM_MOLECULAR_WEIGHT>
155.15

> <PUBCHEM_MONOISOTOPIC_WEIGHT>
155.069476538

> <PUBCHEM_OPENEYE_CAN_SMILES>
C1=C(NC=N1)CC(C(=O)O)N

> <PUBCHEM_OPENEYE_ISO_SMILES>
C1=C(NC=N1)C[C@@H](C(=O)O)N

> <PUBCHEM_TOTAL_CHARGE>
0

> <PUBCHEM_XLOGP3_AA>
-3.2

> <RelativeEnergy>
1.2288

> <StereoisomerIndex>
1

> <TautomerIndex>
2

> <POSE_NUMBER>
1

> <LibDockScore>
86.5188

> <HotSpots>
9.81,9.87,-3.46,P,67,4
8.41,8.07,-4.86,A,38,9
6.41,11.47,-0.06,A,67,11

> <-In-Situ Starting Energy>
38.901376

> <-In-Situ Final Energy>
74.6881204

> <In-Situ Gradient>
0.0007862956101

> <Favorable Total>
11

> <Unfavorable Total>
2

> <Charge Total>
0

> <Hydrophobic Total>
3

> <HydrogenBond Total>
8

> <Other Total>
0

> <Favorable A:LYS6>
0

> <Favorable A:ARG55>
0

> <Favorable A:LEU58>
0

> <Favorable A:LEU61>
0

> <Favorable A:ILE62>
0

> <Favorable A:GLY64>
0

> <Favorable A:SER65>
0

> <Favorable A:TRP66>
0

> <Favorable A:SER69>
0

> <Favorable A:VAL70>
0

> <Favorable A:PRO73>
0

> <Favorable A:ALA74>
0

> <Favorable A:PHE76>
0

> <Favorable A:ALA77>
0

> <Favorable A:THR78>
0

> <Favorable A:GLU79>
0

> <Favorable A:PHE82>
0

> <Favorable A:ARG83>
0

> <Favorable A:LEU85>
0

> <Favorable A:THR86>
0

> <Favorable A:TRP89>
1

> <Favorable A:THR90>
2

> <Favorable A:ASN93>
0

> <Favorable A:HIS94>
1

> <Favorable A:SER96>
0

> <Favorable A:VAL97>
1

> <Favorable A:TRP98>
0

> <Favorable A:PHE140>
0

> <Favorable A:LEU141>
0

> <Favorable A:ASN144>
1

> <Favorable A:ILE148>
0

> <Favorable A:ILE150>
0

> <Favorable A:HIS151>
0

> <Favorable A:ILE152>
0

> <Favorable A:ALA154>
0

> <Favorable A:SER155>
0

> <Favorable A:ILE156>
0

> <Favorable A:GLY158>
0

> <Favorable A:TYR159>
0

> <Favorable A:ARG160>
0

> <Favorable A:ARG161>
0

> <Favorable A:ASN162>
0

> <Favorable A:LYS163>
0

> <Favorable A:SER167>
0

> <Favorable A:ASP168>
0

> <Favorable A:SER169>
0

> <Favorable A:ASN171>
0

> <Favorable A:PHE172>
0

> <Favorable A:THR173>
0

> <Favorable A:ARG174>
0

> <Favorable A:PHE175>
0

> <Favorable A:SER176>
0

> <Favorable A:SER177>
0

> <Favorable A:LEU178>
0

> <Favorable A:ILE179>
0

> <Favorable A:VAL180>
0

> <Favorable A:LEU181>
0

> <Favorable A:SER183>
3

> <Favorable A:THR184>
0

> <Favorable A:PHE186>
1

> <Favorable A:ILE187>
1

> <Favorable A:PHE188>
0

> <Favorable A:ILE189>
0

> <Favorable A:PRO190>
0

> <Favorable A:PHE191>
0

> <Favorable A:TYR240>
0

> <Favorable A:PHE243>
0

> <Favorable A:SER244>
0

> <Favorable A:PHE247>
0

> <Favorable A:PHE248>
0

> <Favorable A:VAL251>
0

> <Favorable A:TRP252>
0

> <Favorable A:SER254>
0

> <Favorable A:GLU255>
0

> <Favorable A:ARG256>
0

> <Favorable A:LEU257>
0

> <Favorable A:GLU258>
0

> <Favorable A:GLU259>
0

> <Favorable A:LEU261>
0

> <Favorable A:ILE262>
0

> <Favorable A:ILE263>
0

> <Favorable A:SER265>
0

> <Favorable A:GLN266>
0

> <Favorable A:MET268>
0

> <Favorable A:GLY269>
0

> <Favorable A:TYR272>
0

> <Favorable A:PRO273>
0

> <Unfavorable A:ARG55>
0

> <Unfavorable A:PRO73>
0

> <Unfavorable A:PHE76>
0

> <Unfavorable A:GLU79>
0

> <Unfavorable A:ARG83>
0

> <Unfavorable A:THR86>
0

> <Unfavorable A:TRP89>
0

> <Unfavorable A:THR90>
0

> <Unfavorable A:ASN93>
0

> <Unfavorable A:TRP98>
0

> <Unfavorable A:ASN144>
2

> <Unfavorable A:SER155>
0

> <Unfavorable A:GLY158>
0

> <Unfavorable A:TYR159>
0

> <Unfavorable A:ASN162>
0

> <Unfavorable A:ASP168>
0

> <Unfavorable A:ASN171>
0

> <Unfavorable A:THR173>
0

> <Unfavorable A:ARG174>
0

> <Unfavorable A:SER183>
0

> <Unfavorable A:THR184>
0

> <Unfavorable A:PHE186>
0

> <Unfavorable A:SER244>
0

> <Unfavorable A:SER254>
0

> <Unfavorable A:GLU255>
0

> <Unfavorable A:SER265>
0

> <Unfavorable A:GLN266>
0

> <Unfavorable A:GLY269>
0

> <Charge A:ARG55>
0

> <Charge A:PHE76>
0

> <Charge A:GLU79>
0

> <Charge A:PHE82>
0

> <Charge A:ARG83>
0

> <Charge A:TRP89>
0

> <Charge A:HIS94>
0

> <Charge A:TRP98>
0

> <Charge A:TYR159>
0

> <Charge A:ARG161>
0

> <Charge A:LYS163>
0

> <Charge A:ASP168>
0

> <Charge A:PHE172>
0

> <Charge A:ARG174>
0

> <Charge A:PHE175>
0

> <Charge A:PHE188>
0

> <Charge A:PHE247>
0

> <Charge A:PHE248>
0

> <Hydrophobic A:LEU58>
0

> <Hydrophobic A:LEU61>
0

> <Hydrophobic A:ILE62>
0

> <Hydrophobic A:TRP66>
0

> <Hydrophobic A:VAL70>
0

> <Hydrophobic A:PRO73>
0

> <Hydrophobic A:ALA74>
0

> <Hydrophobic A:PHE76>
0

> <Hydrophobic A:ALA77>
0

> <Hydrophobic A:THR78>
0

> <Hydrophobic A:PHE82>
0

> <Hydrophobic A:ARG83>
0

> <Hydrophobic A:LEU85>
0

> <Hydrophobic A:TRP89>
0

> <Hydrophobic A:THR90>
0

> <Hydrophobic A:ASN93>
0

> <Hydrophobic A:HIS94>
1

> <Hydrophobic A:VAL97>
1

> <Hydrophobic A:TRP98>
0

> <Hydrophobic A:PHE140>
0

> <Hydrophobic A:LEU141>
0

> <Hydrophobic A:ILE148>
0

> <Hydrophobic A:ILE150>
0

> <Hydrophobic A:HIS151>
0

> <Hydrophobic A:ILE152>
0

> <Hydrophobic A:ALA154>
0

> <Hydrophobic A:SER155>
0

> <Hydrophobic A:ILE156>
0

> <Hydrophobic A:GLY158>
0

> <Hydrophobic A:TYR159>
0

> <Hydrophobic A:ARG160>
0

> <Hydrophobic A:ARG161>
0

> <Hydrophobic A:ASP168>
0

> <Hydrophobic A:ASN171>
0

> <Hydrophobic A:PHE172>
0

> <Hydrophobic A:ARG174>
0

> <Hydrophobic A:PHE175>
0

> <Hydrophobic A:LEU178>
0

> <Hydrophobic A:ILE179>
0

> <Hydrophobic A:VAL180>
0

> <Hydrophobic A:LEU181>
0

> <Hydrophobic A:PHE186>
0

> <Hydrophobic A:ILE187>
1

> <Hydrophobic A:PHE188>
0

> <Hydrophobic A:ILE189>
0

> <Hydrophobic A:PRO190>
0

> <Hydrophobic A:PHE191>
0

> <Hydrophobic A:TYR240>
0

> <Hydrophobic A:PHE243>
0

> <Hydrophobic A:PHE247>
0

> <Hydrophobic A:PHE248>
0

> <Hydrophobic A:VAL251>
0

> <Hydrophobic A:TRP252>
0

> <Hydrophobic A:SER254>
0

> <Hydrophobic A:LEU261>
0

> <Hydrophobic A:ILE262>
0

> <Hydrophobic A:ILE263>
0

> <Hydrophobic A:TYR272>
0

> <Hydrophobic A:PRO273>
0

> <HydrogenBond A:LYS6>
0

> <HydrogenBond A:ARG55>
0

> <HydrogenBond A:GLY64>
0

> <HydrogenBond A:SER65>
0

> <HydrogenBond A:TRP66>
0

> <HydrogenBond A:SER69>
0

> <HydrogenBond A:PRO73>
0

> <HydrogenBond A:ALA74>
0

> <HydrogenBond A:PHE76>
0

> <HydrogenBond A:ALA77>
0

> <HydrogenBond A:THR78>
0

> <HydrogenBond A:GLU79>
0

> <HydrogenBond A:PHE82>
0

> <HydrogenBond A:ARG83>
0

> <HydrogenBond A:LEU85>
0

> <HydrogenBond A:THR86>
0

> <HydrogenBond A:TRP89>
1

> <HydrogenBond A:THR90>
2

> <HydrogenBond A:ASN93>
0

> <HydrogenBond A:HIS94>
0

> <HydrogenBond A:SER96>
0

> <HydrogenBond A:TRP98>
0

> <HydrogenBond A:ASN144>
1

> <HydrogenBond A:HIS151>
0

> <HydrogenBond A:ILE152>
0

> <HydrogenBond A:ALA154>
0

> <HydrogenBond A:SER155>
0

> <HydrogenBond A:ILE156>
0

> <HydrogenBond A:GLY158>
0

> <HydrogenBond A:TYR159>
0

> <HydrogenBond A:ASN162>
0

> <HydrogenBond A:LYS163>
0

> <HydrogenBond A:SER167>
0

> <HydrogenBond A:ASP168>
0

> <HydrogenBond A:SER169>
0

> <HydrogenBond A:ASN171>
0

> <HydrogenBond A:PHE172>
0

> <HydrogenBond A:THR173>
0

> <HydrogenBond A:ARG174>
0

> <HydrogenBond A:PHE175>
0

> <HydrogenBond A:SER176>
0

> <HydrogenBond A:SER177>
0

> <HydrogenBond A:ILE179>
0

> <HydrogenBond A:VAL180>
0

> <HydrogenBond A:SER183>
3

> <HydrogenBond A:THR184>
0

> <HydrogenBond A:PHE186>
1

> <HydrogenBond A:ILE187>
0

> <HydrogenBond A:PRO190>
0

> <HydrogenBond A:TYR240>
0

> <HydrogenBond A:PHE243>
0

> <HydrogenBond A:SER244>
0

> <HydrogenBond A:PHE247>
0

> <HydrogenBond A:VAL251>
0

> <HydrogenBond A:SER254>
0

> <HydrogenBond A:GLU255>
0

> <HydrogenBond A:ARG256>
0

> <HydrogenBond A:LEU257>
0

> <HydrogenBond A:GLU258>
0

> <HydrogenBond A:GLU259>
0

> <HydrogenBond A:ILE262>
0

> <HydrogenBond A:SER265>
0

> <HydrogenBond A:GLN266>
0

> <HydrogenBond A:MET268>
0

> <HydrogenBond A:GLY269>
0

> <HydrogenBond A:PRO273>
0

> <Other A:SER69>
0

> <Other A:TRP89>
0

> <Other A:TYR159>
0

> <Other A:PHE172>
0

> <Other A:SER176>
0

> <Other A:SER265>
0

$$$$
6306
  SciTegic09122300493D

 22 21  0  0  0  0            999 V2000
    6.2493   10.9062    0.7215 O   0  5  0  1  0  0
    6.4236   12.6479   -0.5367 O   0  0  0  1  0  0
    7.3813   11.2089   -2.3767 N   0  3  0  1  0  0
    6.7307    9.1198   -1.4078 C   0  0  2  1  0  0
    6.3761   10.5764   -1.6121 C   0  0  1  1  0  0
    7.0049    8.3931   -2.7472 C   0  0  0  1  0  0
    5.6689    8.3660   -0.5962 C   0  0  0  1  0  0
    8.2359    8.8185   -3.5715 C   0  0  0  1  0  0
    6.3438   11.4299   -0.3697 C   0  0  0  1  0  0
    7.1773   11.0489   -3.3811 H   0  0
    8.2870   10.8134   -2.0587 H   0  0
    7.2745   12.1912   -2.0225 H   0  0
    7.6115    9.1725   -0.7823 H   0  0
    5.4549   10.7041   -2.1465 H   0  0
    6.1246    8.4892   -3.3805 H   0  0
    7.1051    7.3310   -2.5298 H   0  0
    4.9327    9.0372   -0.1543 H   0  0
    6.1175    7.8210    0.2329 H   0  0
    5.1305    7.6461   -1.2091 H   0  0
    9.1128    9.0194   -2.9579 H   0  0
    8.0381    9.6870   -4.1964 H   0  0
    8.5086    8.0183   -4.2608 H   0  0
  1  9  1  0
  2  9  2  0
  3  5  1  0
  4  5  1  0
  4  6  1  0
  4  7  1  0
  5  9  1  0
  6  8  1  0
  3 10  1  0
  3 11  1  0
  3 12  1  0
  4 13  1  0
  5 14  1  0
  6 15  1  0
  6 16  1  0
  7 17  1  0
  7 18  1  0
  7 19  1  0
  8 20  1  0
  8 21  1  0
  8 22  1  0
M  CHG  2   1  -1   3   1
M  END
> <Name>
6306

> <Binding Energy>
-8.726

> <Ligand Energy>
-89.5816

> <Protein Energy>
-7801.1566

> <Complex Energy>
-7899.4642

> <Complex Entropy>
-31.4756

> <Protein Entropy>
-31.4717

> <Ligand Entropy>
-17.0535

> <Entropic Energy>
17.0495

> <AbsoluteEnergy>
11.2012

> <ConfNumber>
27

> <Ionization pH>
7.5

> <IonizationIndex>
1

> <MOL_NUMBER>
691

> <NumberOfIonizations>
1

> <NumberOfStereoisomers>
1

> <NumberOfTautomers>
1

> <PUBCHEM_ATOM_DEF_STEREO_COUNT>
2

> <PUBCHEM_ATOM_UDEF_STEREO_COUNT>
0

> <PUBCHEM_BONDANNOTATIONS>
5  3  6
4  7  5

> <PUBCHEM_BOND_DEF_STEREO_COUNT>
0

> <PUBCHEM_BOND_UDEF_STEREO_COUNT>
0

> <PUBCHEM_CACTVS_COMPLEXITY>
103

> <PUBCHEM_CACTVS_HBOND_ACCEPTOR>
3

> <PUBCHEM_CACTVS_HBOND_DONOR>
2

> <PUBCHEM_CACTVS_ROTATABLE_BOND>
3

> <PUBCHEM_CACTVS_SUBSKEYS>
AAADccBiMAAAAAAAAAAAAAAAAAAAAAAAAAAAAAAAAAAAAAAAAAAAHgAQCAAADSjBgAQCCABAAgAIAACQCAAAAAAAAAAAAIGAAAACABIAgAAAQAAEEAAAAACIAAAKAAAAAAAAAAAAAAAAAAAAAAAAAAAAAA==

> <PUBCHEM_CACTVS_TAUTO_COUNT>
1

> <PUBCHEM_CACTVS_TPSA>
63.3

> <PUBCHEM_COMPONENT_COUNT>
1

> <PUBCHEM_COMPOUND_CANONICALIZED>
1

> <PUBCHEM_COMPOUND_CID>
6306

> <PUBCHEM_COORDINATE_TYPE>
1
5
255

> <PUBCHEM_EXACT_MASS>
131.094628657

> <PUBCHEM_HEAVY_ATOM_COUNT>
9

> <PUBCHEM_ISOTOPIC_ATOM_COUNT>
0

> <PUBCHEM_IUPAC_CAS_NAME>
(2S,3S)-2-amino-3-methylpentanoic acid

> <PUBCHEM_IUPAC_INCHI>
InChI=1S/C6H13NO2/c1-3-4(2)5(7)6(8)9/h4-5H,3,7H2,1-2H3,(H,8,9)/t4-,5-/m0/s1

> <PUBCHEM_IUPAC_INCHIKEY>
AGPKZVBTJJNPAG-WHFBIAKZSA-N

> <PUBCHEM_IUPAC_NAME>
(2S,3S)-2-amino-3-methylpentanoic acid

> <PUBCHEM_IUPAC_NAME_MARKUP>
(2<I>S</I>,3<I>S</I>)-2-amino-3-methylpentanoic acid

> <PUBCHEM_IUPAC_OPENEYE_NAME>
(2S,3S)-2-amino-3-methyl-pentanoic acid

> <PUBCHEM_IUPAC_SYSTEMATIC_NAME>
(2S,3S)-2-azanyl-3-methyl-pentanoic acid

> <PUBCHEM_IUPAC_TRADITIONAL_NAME>
(2S,3S)-2-amino-3-methyl-valeric acid

> <PUBCHEM_MOLECULAR_FORMULA>
C6H13NO2

> <PUBCHEM_MOLECULAR_WEIGHT>
131.17

> <PUBCHEM_MONOISOTOPIC_WEIGHT>
131.094628657

> <PUBCHEM_OPENEYE_CAN_SMILES>
CCC(C)C(C(=O)O)N

> <PUBCHEM_OPENEYE_ISO_SMILES>
CC[C@H](C)[C@@H](C(=O)O)N

> <PUBCHEM_TOTAL_CHARGE>
0

> <PUBCHEM_XLOGP3>
-1.7

> <RelativeEnergy>
4.24992

> <StereoisomerIndex>
1

> <TautomerIndex>
1

> <POSE_NUMBER>
1

> <LibDockScore>
62.7291

> <HotSpots>
4.21,9.07,-0.26,P,84,1
7.21,9.27,-3.25,A,45,6
8.61,9.67,-3.85,A,41,8

> <-In-Situ Starting Energy>
-171.669274

> <-In-Situ Final Energy>
31.4156428

> <In-Situ Gradient>
0.0008824213603

> <Favorable Total>
6

> <Unfavorable Total>
1

> <Charge Total>
0

> <Hydrophobic Total>
5

> <HydrogenBond Total>
1

> <Other Total>
0

> <Favorable A:LYS6>
0

> <Favorable A:ARG55>
0

> <Favorable A:LEU58>
0

> <Favorable A:LEU61>
0

> <Favorable A:ILE62>
0

> <Favorable A:GLY64>
0

> <Favorable A:SER65>
0

> <Favorable A:TRP66>
0

> <Favorable A:SER69>
0

> <Favorable A:VAL70>
0

> <Favorable A:PRO73>
0

> <Favorable A:ALA74>
0

> <Favorable A:PHE76>
0

> <Favorable A:ALA77>
0

> <Favorable A:THR78>
0

> <Favorable A:GLU79>
0

> <Favorable A:PHE82>
0

> <Favorable A:ARG83>
0

> <Favorable A:LEU85>
0

> <Favorable A:THR86>
0

> <Favorable A:TRP89>
0

> <Favorable A:THR90>
0

> <Favorable A:ASN93>
0

> <Favorable A:HIS94>
1

> <Favorable A:SER96>
0

> <Favorable A:VAL97>
1

> <Favorable A:TRP98>
1

> <Favorable A:PHE140>
0

> <Favorable A:LEU141>
0

> <Favorable A:ASN144>
0

> <Favorable A:ILE148>
0

> <Favorable A:ILE150>
0

> <Favorable A:HIS151>
0

> <Favorable A:ILE152>
0

> <Favorable A:ALA154>
0

> <Favorable A:SER155>
0

> <Favorable A:ILE156>
0

> <Favorable A:GLY158>
0

> <Favorable A:TYR159>
0

> <Favorable A:ARG160>
0

> <Favorable A:ARG161>
0

> <Favorable A:ASN162>
0

> <Favorable A:LYS163>
0

> <Favorable A:SER167>
0

> <Favorable A:ASP168>
0

> <Favorable A:SER169>
0

> <Favorable A:ASN171>
0

> <Favorable A:PHE172>
0

> <Favorable A:THR173>
0

> <Favorable A:ARG174>
0

> <Favorable A:PHE175>
0

> <Favorable A:SER176>
0

> <Favorable A:SER177>
0

> <Favorable A:LEU178>
0

> <Favorable A:ILE179>
0

> <Favorable A:VAL180>
0

> <Favorable A:LEU181>
0

> <Favorable A:SER183>
0

> <Favorable A:THR184>
0

> <Favorable A:PHE186>
0

> <Favorable A:ILE187>
2

> <Favorable A:PHE188>
0

> <Favorable A:ILE189>
0

> <Favorable A:PRO190>
1

> <Favorable A:PHE191>
0

> <Favorable A:TYR240>
0

> <Favorable A:PHE243>
0

> <Favorable A:SER244>
0

> <Favorable A:PHE247>
0

> <Favorable A:PHE248>
0

> <Favorable A:VAL251>
0

> <Favorable A:TRP252>
0

> <Favorable A:SER254>
0

> <Favorable A:GLU255>
0

> <Favorable A:ARG256>
0

> <Favorable A:LEU257>
0

> <Favorable A:GLU258>
0

> <Favorable A:GLU259>
0

> <Favorable A:LEU261>
0

> <Favorable A:ILE262>
0

> <Favorable A:ILE263>
0

> <Favorable A:SER265>
0

> <Favorable A:GLN266>
0

> <Favorable A:MET268>
0

> <Favorable A:GLY269>
0

> <Favorable A:TYR272>
0

> <Favorable A:PRO273>
0

> <Unfavorable A:ARG55>
0

> <Unfavorable A:PRO73>
0

> <Unfavorable A:PHE76>
0

> <Unfavorable A:GLU79>
0

> <Unfavorable A:ARG83>
0

> <Unfavorable A:THR86>
0

> <Unfavorable A:TRP89>
0

> <Unfavorable A:THR90>
0

> <Unfavorable A:ASN93>
0

> <Unfavorable A:TRP98>
0

> <Unfavorable A:ASN144>
0

> <Unfavorable A:SER155>
0

> <Unfavorable A:GLY158>
0

> <Unfavorable A:TYR159>
0

> <Unfavorable A:ASN162>
0

> <Unfavorable A:ASP168>
0

> <Unfavorable A:ASN171>
0

> <Unfavorable A:THR173>
0

> <Unfavorable A:ARG174>
0

> <Unfavorable A:SER183>
0

> <Unfavorable A:THR184>
0

> <Unfavorable A:PHE186>
1

> <Unfavorable A:SER244>
0

> <Unfavorable A:SER254>
0

> <Unfavorable A:GLU255>
0

> <Unfavorable A:SER265>
0

> <Unfavorable A:GLN266>
0

> <Unfavorable A:GLY269>
0

> <Charge A:ARG55>
0

> <Charge A:PHE76>
0

> <Charge A:GLU79>
0

> <Charge A:PHE82>
0

> <Charge A:ARG83>
0

> <Charge A:TRP89>
0

> <Charge A:HIS94>
0

> <Charge A:TRP98>
0

> <Charge A:TYR159>
0

> <Charge A:ARG161>
0

> <Charge A:LYS163>
0

> <Charge A:ASP168>
0

> <Charge A:PHE172>
0

> <Charge A:ARG174>
0

> <Charge A:PHE175>
0

> <Charge A:PHE188>
0

> <Charge A:PHE247>
0

> <Charge A:PHE248>
0

> <Hydrophobic A:LEU58>
0

> <Hydrophobic A:LEU61>
0

> <Hydrophobic A:ILE62>
0

> <Hydrophobic A:TRP66>
0

> <Hydrophobic A:VAL70>
0

> <Hydrophobic A:PRO73>
0

> <Hydrophobic A:ALA74>
0

> <Hydrophobic A:PHE76>
0

> <Hydrophobic A:ALA77>
0

> <Hydrophobic A:THR78>
0

> <Hydrophobic A:PHE82>
0

> <Hydrophobic A:ARG83>
0

> <Hydrophobic A:LEU85>
0

> <Hydrophobic A:TRP89>
0

> <Hydrophobic A:THR90>
0

> <Hydrophobic A:ASN93>
0

> <Hydrophobic A:HIS94>
0

> <Hydrophobic A:VAL97>
1

> <Hydrophobic A:TRP98>
1

> <Hydrophobic A:PHE140>
0

> <Hydrophobic A:LEU141>
0

> <Hydrophobic A:ILE148>
0

> <Hydrophobic A:ILE150>
0

> <Hydrophobic A:HIS151>
0

> <Hydrophobic A:ILE152>
0

> <Hydrophobic A:ALA154>
0

> <Hydrophobic A:SER155>
0

> <Hydrophobic A:ILE156>
0

> <Hydrophobic A:GLY158>
0

> <Hydrophobic A:TYR159>
0

> <Hydrophobic A:ARG160>
0

> <Hydrophobic A:ARG161>
0

> <Hydrophobic A:ASP168>
0

> <Hydrophobic A:ASN171>
0

> <Hydrophobic A:PHE172>
0

> <Hydrophobic A:ARG174>
0

> <Hydrophobic A:PHE175>
0

> <Hydrophobic A:LEU178>
0

> <Hydrophobic A:ILE179>
0

> <Hydrophobic A:VAL180>
0

> <Hydrophobic A:LEU181>
0

> <Hydrophobic A:PHE186>
0

> <Hydrophobic A:ILE187>
2

> <Hydrophobic A:PHE188>
0

> <Hydrophobic A:ILE189>
0

> <Hydrophobic A:PRO190>
1

> <Hydrophobic A:PHE191>
0

> <Hydrophobic A:TYR240>
0

> <Hydrophobic A:PHE243>
0

> <Hydrophobic A:PHE247>
0

> <Hydrophobic A:PHE248>
0

> <Hydrophobic A:VAL251>
0

> <Hydrophobic A:TRP252>
0

> <Hydrophobic A:SER254>
0

> <Hydrophobic A:LEU261>
0

> <Hydrophobic A:ILE262>
0

> <Hydrophobic A:ILE263>
0

> <Hydrophobic A:TYR272>
0

> <Hydrophobic A:PRO273>
0

> <HydrogenBond A:LYS6>
0

> <HydrogenBond A:ARG55>
0

> <HydrogenBond A:GLY64>
0

> <HydrogenBond A:SER65>
0

> <HydrogenBond A:TRP66>
0

> <HydrogenBond A:SER69>
0

> <HydrogenBond A:PRO73>
0

> <HydrogenBond A:ALA74>
0

> <HydrogenBond A:PHE76>
0

> <HydrogenBond A:ALA77>
0

> <HydrogenBond A:THR78>
0

> <HydrogenBond A:GLU79>
0

> <HydrogenBond A:PHE82>
0

> <HydrogenBond A:ARG83>
0

> <HydrogenBond A:LEU85>
0

> <HydrogenBond A:THR86>
0

> <HydrogenBond A:TRP89>
0

> <HydrogenBond A:THR90>
0

> <HydrogenBond A:ASN93>
0

> <HydrogenBond A:HIS94>
1

> <HydrogenBond A:SER96>
0

> <HydrogenBond A:TRP98>
0

> <HydrogenBond A:ASN144>
0

> <HydrogenBond A:HIS151>
0

> <HydrogenBond A:ILE152>
0

> <HydrogenBond A:ALA154>
0

> <HydrogenBond A:SER155>
0

> <HydrogenBond A:ILE156>
0

> <HydrogenBond A:GLY158>
0

> <HydrogenBond A:TYR159>
0

> <HydrogenBond A:ASN162>
0

> <HydrogenBond A:LYS163>
0

> <HydrogenBond A:SER167>
0

> <HydrogenBond A:ASP168>
0

> <HydrogenBond A:SER169>
0

> <HydrogenBond A:ASN171>
0

> <HydrogenBond A:PHE172>
0

> <HydrogenBond A:THR173>
0

> <HydrogenBond A:ARG174>
0

> <HydrogenBond A:PHE175>
0

> <HydrogenBond A:SER176>
0

> <HydrogenBond A:SER177>
0

> <HydrogenBond A:ILE179>
0

> <HydrogenBond A:VAL180>
0

> <HydrogenBond A:SER183>
0

> <HydrogenBond A:THR184>
0

> <HydrogenBond A:PHE186>
0

> <HydrogenBond A:ILE187>
0

> <HydrogenBond A:PRO190>
0

> <HydrogenBond A:TYR240>
0

> <HydrogenBond A:PHE243>
0

> <HydrogenBond A:SER244>
0

> <HydrogenBond A:PHE247>
0

> <HydrogenBond A:VAL251>
0

> <HydrogenBond A:SER254>
0

> <HydrogenBond A:GLU255>
0

> <HydrogenBond A:ARG256>
0

> <HydrogenBond A:LEU257>
0

> <HydrogenBond A:GLU258>
0

> <HydrogenBond A:GLU259>
0

> <HydrogenBond A:ILE262>
0

> <HydrogenBond A:SER265>
0

> <HydrogenBond A:GLN266>
0

> <HydrogenBond A:MET268>
0

> <HydrogenBond A:GLY269>
0

> <HydrogenBond A:PRO273>
0

> <Other A:SER69>
0

> <Other A:TRP89>
0

> <Other A:TYR159>
0

> <Other A:PHE172>
0

> <Other A:SER176>
0

> <Other A:SER265>
0

$$$$
6322
  SciTegic09122300493D

 26 25  0  0  0  0            999 V2000
    9.1818    8.2111   -6.3570 O   0  5  0  1  0  0
    8.1171    6.6595   -5.2596 O   0  0  0  1  0  0
    9.6959    9.6026   -4.4414 N   0  3  0  1  0  0
    6.6228   11.6188   -0.7270 N   0  0  0  1  0  0
    6.8441   13.2129    0.8964 N   0  0  0  1  0  0
    6.5944   13.9260   -1.2832 N   0  0  0  1  0  0
    7.3919    9.3035   -3.6699 C   0  0  0  1  0  0
    7.5612    9.9983   -2.3081 C   0  0  0  1  0  0
    8.7028    8.6402   -4.0960 C   0  0  1  1  0  0
    6.5220   11.0826   -2.0770 C   0  0  0  1  0  0
    8.6331    7.7656   -5.3376 C   0  0  0  1  0  0
    6.6619   12.9304   -0.4003 C   0  0  0  1  0  0
   10.2236    9.9083   -3.6006 H   0  0
    9.2328   10.3176   -5.0335 H   0  0
   10.2522    9.0161   -5.1054 H   0  0
    6.7363   10.9489    0.0121 H   0  0
    7.0969   12.4880    1.5468 H   0  0
    6.4998   13.7944   -2.2672 H   0  0
    6.6613   14.8657   -0.9468 H   0  0
    6.5974    8.5601   -3.5971 H   0  0
    7.0622   10.0105   -4.4316 H   0  0
    8.5534   10.4353   -2.2106 H   0  0
    7.4730    9.2562   -1.5159 H   0  0
    9.1298    8.0785   -3.2831 H   0  0
    6.5944   11.8772   -2.8176 H   0  0
    5.5382   10.6447   -2.1311 H   0  0
  1 11  1  0
  2 11  2  0
  3  9  1  0
  4 10  1  0
  4 12  1  0
  5 12  2  0
  6 12  1  0
  7  8  1  0
  7  9  1  0
  8 10  1  0
  9 11  1  0
  3 13  1  0
  3 14  1  0
  3 15  1  0
  4 16  1  0
  5 17  1  0
  6 18  1  0
  6 19  1  0
  7 20  1  0
  7 21  1  0
  8 22  1  0
  8 23  1  0
  9 24  1  0
 10 25  1  0
 10 26  1  0
M  CHG  2   1  -1   3   1
M  END
> <Name>
6322

> <Binding Energy>
-24.7529

> <Ligand Energy>
-110.4926

> <Protein Energy>
-7801.1566

> <Complex Energy>
-7936.4021

> <Complex Entropy>
-31.4771

> <Protein Entropy>
-31.4717

> <Ligand Entropy>
-18.0596

> <Entropic Energy>
18.0542

> <AbsoluteEnergy>
13.13

> <ConfNumber>
15

> <Ionization pH>
7.03_DDP

> <IonizationIndex>
2

> <MOL_NUMBER>
694

> <NumberOfIonizations>
2

> <NumberOfStereoisomers>
1

> <NumberOfTautomers>
3

> <PUBCHEM_ATOM_DEF_STEREO_COUNT>
1

> <PUBCHEM_ATOM_UDEF_STEREO_COUNT>
0

> <PUBCHEM_BONDANNOTATIONS>
9  3  6

> <PUBCHEM_BOND_DEF_STEREO_COUNT>
0

> <PUBCHEM_BOND_UDEF_STEREO_COUNT>
0

> <PUBCHEM_CACTVS_COMPLEXITY>
176

> <PUBCHEM_CACTVS_HBOND_ACCEPTOR>
4

> <PUBCHEM_CACTVS_HBOND_DONOR>
4

> <PUBCHEM_CACTVS_ROTATABLE_BOND>
5

> <PUBCHEM_CACTVS_SUBSKEYS>
AAADccBjsAAAAAAAAAAAAAAAAAAAAAAAAAAAAAAAAAAAAAAAAAAAHgAQCAAACCjBgAQBCAJAAgAoAACQLAAAAAEAAAAAAIGAAAACABIAgAAAQAAEEAAAAACYEQAAAAAAAAAAAAAAAAAAAAAAAAAAAAAAAA==

> <PUBCHEM_CACTVS_TAUTO_COUNT>
6

> <PUBCHEM_CACTVS_TPSA>
128

> <PUBCHEM_COMPONENT_COUNT>
1

> <PUBCHEM_COMPOUND_CANONICALIZED>
1

> <PUBCHEM_COMPOUND_CID>
6322

> <PUBCHEM_COORDINATE_TYPE>
1
5
255

> <PUBCHEM_EXACT_MASS>
174.1116757

> <PUBCHEM_HEAVY_ATOM_COUNT>
12

> <PUBCHEM_ISOTOPIC_ATOM_COUNT>
0

> <PUBCHEM_IUPAC_CAS_NAME>
(2S)-2-amino-5-(diaminomethylideneamino)pentanoic acid

> <PUBCHEM_IUPAC_INCHI>
InChI=1S/C6H14N4O2/c7-4(5(11)12)2-1-3-10-6(8)9/h4H,1-3,7H2,(H,11,12)(H4,8,9,10)/t4-/m0/s1

> <PUBCHEM_IUPAC_INCHIKEY>
ODKSFYDXXFIFQN-BYPYZUCNSA-N

> <PUBCHEM_IUPAC_NAME>
(2S)-2-amino-5-(diaminomethylideneamino)pentanoic acid

> <PUBCHEM_IUPAC_NAME_MARKUP>
(2<I>S</I>)-2-amino-5-(diaminomethylideneamino)pentanoic acid

> <PUBCHEM_IUPAC_OPENEYE_NAME>
(2S)-2-amino-5-guanidino-pentanoic acid

> <PUBCHEM_IUPAC_SYSTEMATIC_NAME>
(2S)-2-azanyl-5-[bis(azanyl)methylideneamino]pentanoic acid

> <PUBCHEM_IUPAC_TRADITIONAL_NAME>
(2S)-2-amino-5-guanidino-valeric acid

> <PUBCHEM_MOLECULAR_FORMULA>
C6H14N4O2

> <PUBCHEM_MOLECULAR_WEIGHT>
174.2

> <PUBCHEM_MONOISOTOPIC_WEIGHT>
174.1116757

> <PUBCHEM_OPENEYE_CAN_SMILES>
C(CC(C(=O)O)N)CN=C(N)N

> <PUBCHEM_OPENEYE_ISO_SMILES>
C(C[C@@H](C(=O)O)N)CN=C(N)N

> <PUBCHEM_TOTAL_CHARGE>
0

> <PUBCHEM_XLOGP3>
-4.2

> <RelativeEnergy>
3.71881

> <StereoisomerIndex>
1

> <TautomerIndex>
2

> <POSE_NUMBER>
1

> <LibDockScore>
91.5905

> <HotSpots>
6.21,14.47,-1.25,P,80,5
6.41,13.87,-3.46,P,68,6
8.01,10.07,-2.25,A,50,8

> <-In-Situ Starting Energy>
-31.5035074

> <-In-Situ Final Energy>
61.1507492

> <In-Situ Gradient>
0.0009224453885

> <Favorable Total>
8

> <Unfavorable Total>
1

> <Charge Total>
0

> <Hydrophobic Total>
0

> <HydrogenBond Total>
8

> <Other Total>
0

> <Favorable A:LYS6>
0

> <Favorable A:ARG55>
0

> <Favorable A:LEU58>
0

> <Favorable A:LEU61>
0

> <Favorable A:ILE62>
0

> <Favorable A:GLY64>
0

> <Favorable A:SER65>
0

> <Favorable A:TRP66>
0

> <Favorable A:SER69>
0

> <Favorable A:VAL70>
0

> <Favorable A:PRO73>
0

> <Favorable A:ALA74>
0

> <Favorable A:PHE76>
0

> <Favorable A:ALA77>
0

> <Favorable A:THR78>
0

> <Favorable A:GLU79>
0

> <Favorable A:PHE82>
0

> <Favorable A:ARG83>
0

> <Favorable A:LEU85>
0

> <Favorable A:THR86>
0

> <Favorable A:TRP89>
2

> <Favorable A:THR90>
1

> <Favorable A:ASN93>
1

> <Favorable A:HIS94>
0

> <Favorable A:SER96>
0

> <Favorable A:VAL97>
0

> <Favorable A:TRP98>
0

> <Favorable A:PHE140>
0

> <Favorable A:LEU141>
0

> <Favorable A:ASN144>
0

> <Favorable A:ILE148>
0

> <Favorable A:ILE150>
0

> <Favorable A:HIS151>
0

> <Favorable A:ILE152>
0

> <Favorable A:ALA154>
0

> <Favorable A:SER155>
0

> <Favorable A:ILE156>
0

> <Favorable A:GLY158>
0

> <Favorable A:TYR159>
0

> <Favorable A:ARG160>
0

> <Favorable A:ARG161>
0

> <Favorable A:ASN162>
0

> <Favorable A:LYS163>
0

> <Favorable A:SER167>
0

> <Favorable A:ASP168>
0

> <Favorable A:SER169>
0

> <Favorable A:ASN171>
0

> <Favorable A:PHE172>
0

> <Favorable A:THR173>
0

> <Favorable A:ARG174>
0

> <Favorable A:PHE175>
0

> <Favorable A:SER176>
0

> <Favorable A:SER177>
0

> <Favorable A:LEU178>
0

> <Favorable A:ILE179>
0

> <Favorable A:VAL180>
0

> <Favorable A:LEU181>
0

> <Favorable A:SER183>
2

> <Favorable A:THR184>
0

> <Favorable A:PHE186>
2

> <Favorable A:ILE187>
0

> <Favorable A:PHE188>
0

> <Favorable A:ILE189>
0

> <Favorable A:PRO190>
0

> <Favorable A:PHE191>
0

> <Favorable A:TYR240>
0

> <Favorable A:PHE243>
0

> <Favorable A:SER244>
0

> <Favorable A:PHE247>
0

> <Favorable A:PHE248>
0

> <Favorable A:VAL251>
0

> <Favorable A:TRP252>
0

> <Favorable A:SER254>
0

> <Favorable A:GLU255>
0

> <Favorable A:ARG256>
0

> <Favorable A:LEU257>
0

> <Favorable A:GLU258>
0

> <Favorable A:GLU259>
0

> <Favorable A:LEU261>
0

> <Favorable A:ILE262>
0

> <Favorable A:ILE263>
0

> <Favorable A:SER265>
0

> <Favorable A:GLN266>
0

> <Favorable A:MET268>
0

> <Favorable A:GLY269>
0

> <Favorable A:TYR272>
0

> <Favorable A:PRO273>
0

> <Unfavorable A:ARG55>
0

> <Unfavorable A:PRO73>
0

> <Unfavorable A:PHE76>
0

> <Unfavorable A:GLU79>
0

> <Unfavorable A:ARG83>
0

> <Unfavorable A:THR86>
0

> <Unfavorable A:TRP89>
0

> <Unfavorable A:THR90>
0

> <Unfavorable A:ASN93>
0

> <Unfavorable A:TRP98>
0

> <Unfavorable A:ASN144>
1

> <Unfavorable A:SER155>
0

> <Unfavorable A:GLY158>
0

> <Unfavorable A:TYR159>
0

> <Unfavorable A:ASN162>
0

> <Unfavorable A:ASP168>
0

> <Unfavorable A:ASN171>
0

> <Unfavorable A:THR173>
0

> <Unfavorable A:ARG174>
0

> <Unfavorable A:SER183>
0

> <Unfavorable A:THR184>
0

> <Unfavorable A:PHE186>
0

> <Unfavorable A:SER244>
0

> <Unfavorable A:SER254>
0

> <Unfavorable A:GLU255>
0

> <Unfavorable A:SER265>
0

> <Unfavorable A:GLN266>
0

> <Unfavorable A:GLY269>
0

> <Charge A:ARG55>
0

> <Charge A:PHE76>
0

> <Charge A:GLU79>
0

> <Charge A:PHE82>
0

> <Charge A:ARG83>
0

> <Charge A:TRP89>
0

> <Charge A:HIS94>
0

> <Charge A:TRP98>
0

> <Charge A:TYR159>
0

> <Charge A:ARG161>
0

> <Charge A:LYS163>
0

> <Charge A:ASP168>
0

> <Charge A:PHE172>
0

> <Charge A:ARG174>
0

> <Charge A:PHE175>
0

> <Charge A:PHE188>
0

> <Charge A:PHE247>
0

> <Charge A:PHE248>
0

> <Hydrophobic A:LEU58>
0

> <Hydrophobic A:LEU61>
0

> <Hydrophobic A:ILE62>
0

> <Hydrophobic A:TRP66>
0

> <Hydrophobic A:VAL70>
0

> <Hydrophobic A:PRO73>
0

> <Hydrophobic A:ALA74>
0

> <Hydrophobic A:PHE76>
0

> <Hydrophobic A:ALA77>
0

> <Hydrophobic A:THR78>
0

> <Hydrophobic A:PHE82>
0

> <Hydrophobic A:ARG83>
0

> <Hydrophobic A:LEU85>
0

> <Hydrophobic A:TRP89>
0

> <Hydrophobic A:THR90>
0

> <Hydrophobic A:ASN93>
0

> <Hydrophobic A:HIS94>
0

> <Hydrophobic A:VAL97>
0

> <Hydrophobic A:TRP98>
0

> <Hydrophobic A:PHE140>
0

> <Hydrophobic A:LEU141>
0

> <Hydrophobic A:ILE148>
0

> <Hydrophobic A:ILE150>
0

> <Hydrophobic A:HIS151>
0

> <Hydrophobic A:ILE152>
0

> <Hydrophobic A:ALA154>
0

> <Hydrophobic A:SER155>
0

> <Hydrophobic A:ILE156>
0

> <Hydrophobic A:GLY158>
0

> <Hydrophobic A:TYR159>
0

> <Hydrophobic A:ARG160>
0

> <Hydrophobic A:ARG161>
0

> <Hydrophobic A:ASP168>
0

> <Hydrophobic A:ASN171>
0

> <Hydrophobic A:PHE172>
0

> <Hydrophobic A:ARG174>
0

> <Hydrophobic A:PHE175>
0

> <Hydrophobic A:LEU178>
0

> <Hydrophobic A:ILE179>
0

> <Hydrophobic A:VAL180>
0

> <Hydrophobic A:LEU181>
0

> <Hydrophobic A:PHE186>
0

> <Hydrophobic A:ILE187>
0

> <Hydrophobic A:PHE188>
0

> <Hydrophobic A:ILE189>
0

> <Hydrophobic A:PRO190>
0

> <Hydrophobic A:PHE191>
0

> <Hydrophobic A:TYR240>
0

> <Hydrophobic A:PHE243>
0

> <Hydrophobic A:PHE247>
0

> <Hydrophobic A:PHE248>
0

> <Hydrophobic A:VAL251>
0

> <Hydrophobic A:TRP252>
0

> <Hydrophobic A:SER254>
0

> <Hydrophobic A:LEU261>
0

> <Hydrophobic A:ILE262>
0

> <Hydrophobic A:ILE263>
0

> <Hydrophobic A:TYR272>
0

> <Hydrophobic A:PRO273>
0

> <HydrogenBond A:LYS6>
0

> <HydrogenBond A:ARG55>
0

> <HydrogenBond A:GLY64>
0

> <HydrogenBond A:SER65>
0

> <HydrogenBond A:TRP66>
0

> <HydrogenBond A:SER69>
0

> <HydrogenBond A:PRO73>
0

> <HydrogenBond A:ALA74>
0

> <HydrogenBond A:PHE76>
0

> <HydrogenBond A:ALA77>
0

> <HydrogenBond A:THR78>
0

> <HydrogenBond A:GLU79>
0

> <HydrogenBond A:PHE82>
0

> <HydrogenBond A:ARG83>
0

> <HydrogenBond A:LEU85>
0

> <HydrogenBond A:THR86>
0

> <HydrogenBond A:TRP89>
2

> <HydrogenBond A:THR90>
1

> <HydrogenBond A:ASN93>
1

> <HydrogenBond A:HIS94>
0

> <HydrogenBond A:SER96>
0

> <HydrogenBond A:TRP98>
0

> <HydrogenBond A:ASN144>
0

> <HydrogenBond A:HIS151>
0

> <HydrogenBond A:ILE152>
0

> <HydrogenBond A:ALA154>
0

> <HydrogenBond A:SER155>
0

> <HydrogenBond A:ILE156>
0

> <HydrogenBond A:GLY158>
0

> <HydrogenBond A:TYR159>
0

> <HydrogenBond A:ASN162>
0

> <HydrogenBond A:LYS163>
0

> <HydrogenBond A:SER167>
0

> <HydrogenBond A:ASP168>
0

> <HydrogenBond A:SER169>
0

> <HydrogenBond A:ASN171>
0

> <HydrogenBond A:PHE172>
0

> <HydrogenBond A:THR173>
0

> <HydrogenBond A:ARG174>
0

> <HydrogenBond A:PHE175>
0

> <HydrogenBond A:SER176>
0

> <HydrogenBond A:SER177>
0

> <HydrogenBond A:ILE179>
0

> <HydrogenBond A:VAL180>
0

> <HydrogenBond A:SER183>
2

> <HydrogenBond A:THR184>
0

> <HydrogenBond A:PHE186>
2

> <HydrogenBond A:ILE187>
0

> <HydrogenBond A:PRO190>
0

> <HydrogenBond A:TYR240>
0

> <HydrogenBond A:PHE243>
0

> <HydrogenBond A:SER244>
0

> <HydrogenBond A:PHE247>
0

> <HydrogenBond A:VAL251>
0

> <HydrogenBond A:SER254>
0

> <HydrogenBond A:GLU255>
0

> <HydrogenBond A:ARG256>
0

> <HydrogenBond A:LEU257>
0

> <HydrogenBond A:GLU258>
0

> <HydrogenBond A:GLU259>
0

> <HydrogenBond A:ILE262>
0

> <HydrogenBond A:SER265>
0

> <HydrogenBond A:GLN266>
0

> <HydrogenBond A:MET268>
0

> <HydrogenBond A:GLY269>
0

> <HydrogenBond A:PRO273>
0

> <Other A:SER69>
0

> <Other A:TRP89>
0

> <Other A:TYR159>
0

> <Other A:PHE172>
0

> <Other A:SER176>
0

> <Other A:SER265>
0

$$$$
9958
  SciTegic09122300493D

 17 17  0  0  0  0            999 V2000
    5.4557    4.1205    3.0345 O   0  0  0  1  0  0
    4.6296    2.0698    1.1920 O   0  0  0  1  0  0
    8.5967    2.4761    2.3916 C   0  0  0  1  0  0
    7.6569    3.3636    2.8539 C   0  0  0  1  0  0
    8.1991    1.4041    1.6018 C   0  0  0  1  0  0
    6.3312    3.2052    2.5216 C   0  0  0  1  0  0
    5.9255    2.1694    1.6752 C   0  0  0  1  0  0
    6.8701    1.2531    1.2368 C   0  0  0  1  0  0
   10.0045    2.7185    2.8107 C   0  0  0  1  0  0
    5.7540    4.4568    3.8886 H   0  0
    4.7159    2.1788    0.2528 H   0  0
    8.0087    4.1915    3.4565 H   0  0
    8.9108    0.6774    1.2574 H   0  0
    6.5891    0.4225    0.6051 H   0  0
    9.9708    3.1623    3.7953 H   0  0
   10.4844    3.4392    2.1523 H   0  0
   10.5895    1.8099    2.8790 H   0  0
  1  6  1  0
  2  7  1  0
  3  4  2  0
  3  5  1  0
  3  9  1  0
  4  6  1  0
  5  8  2  0
  6  7  2  0
  7  8  1  0
  1 10  1  0
  2 11  1  0
  4 12  1  0
  5 13  1  0
  8 14  1  0
  9 15  1  0
  9 16  1  0
  9 17  1  0
M  END
> <Name>
9958

> <Binding Energy>
-7.8316

> <Ligand Energy>
0.9005

> <Protein Energy>
-7801.1566

> <Complex Energy>
-7808.0878

> <Complex Entropy>
-31.475

> <Protein Entropy>
-31.4717

> <Ligand Entropy>
-16.8918

> <Entropic Energy>
16.8885

> <AbsoluteEnergy>
12.9361

> <ConfNumber>
1

> <Ionization pH>
7.5

> <IonizationIndex>
1

> <MOL_NUMBER>
696

> <NumberOfIonizations>
1

> <NumberOfStereoisomers>
1

> <NumberOfTautomers>
1

> <PUBCHEM_ATOM_DEF_STEREO_COUNT>
0

> <PUBCHEM_ATOM_UDEF_STEREO_COUNT>
0

> <PUBCHEM_BONDANNOTATIONS>
3  4  8
3  5  8
4  6  8
5  8  8
6  7  8
7  8  8

> <PUBCHEM_BOND_DEF_STEREO_COUNT>
0

> <PUBCHEM_BOND_UDEF_STEREO_COUNT>
0

> <PUBCHEM_CACTVS_COMPLEXITY>
92.9

> <PUBCHEM_CACTVS_HBOND_ACCEPTOR>
2

> <PUBCHEM_CACTVS_HBOND_DONOR>
2

> <PUBCHEM_CACTVS_ROTATABLE_BOND>
0

> <PUBCHEM_CACTVS_SUBSKEYS>
AAADccBgMAAAAAAAAAAAAAAAAAAAAAAAAAAwAAAAAAAAAAABAAAAGgAACAAADASAmAAyBoAAAgCAAiBCAAACAAAgIAAIiAAGiIgJJiKCERKAcAEkwBEJmAeAwBAOIAABAAAAQABAAAIAAACAAAAAAAAAAA==

> <PUBCHEM_CACTVS_TAUTO_COUNT>
18

> <PUBCHEM_CACTVS_TPSA>
40.5

> <PUBCHEM_COMPONENT_COUNT>
1

> <PUBCHEM_COMPOUND_CANONICALIZED>
1

> <PUBCHEM_COMPOUND_CID>
9958

> <PUBCHEM_COORDINATE_TYPE>
1
5
255

> <PUBCHEM_EXACT_MASS>
124.052429494

> <PUBCHEM_HEAVY_ATOM_COUNT>
9

> <PUBCHEM_ISOTOPIC_ATOM_COUNT>
0

> <PUBCHEM_IUPAC_CAS_NAME>
4-methylbenzene-1,2-diol

> <PUBCHEM_IUPAC_INCHI>
InChI=1S/C7H8O2/c1-5-2-3-6(8)7(9)4-5/h2-4,8-9H,1H3

> <PUBCHEM_IUPAC_INCHIKEY>
ZBCATMYQYDCTIZ-UHFFFAOYSA-N

> <PUBCHEM_IUPAC_NAME>
4-methylbenzene-1,2-diol

> <PUBCHEM_IUPAC_NAME_MARKUP>
4-methylbenzene-1,2-diol

> <PUBCHEM_IUPAC_OPENEYE_NAME>
4-methylbenzene-1,2-diol

> <PUBCHEM_IUPAC_SYSTEMATIC_NAME>
4-methylbenzene-1,2-diol

> <PUBCHEM_IUPAC_TRADITIONAL_NAME>
4-methylpyrocatechol

> <PUBCHEM_MOLECULAR_FORMULA>
C7H8O2

> <PUBCHEM_MOLECULAR_WEIGHT>
124.14

> <PUBCHEM_MONOISOTOPIC_WEIGHT>
124.052429494

> <PUBCHEM_OPENEYE_CAN_SMILES>
CC1=CC(=C(C=C1)O)O

> <PUBCHEM_OPENEYE_ISO_SMILES>
CC1=CC(=C(C=C1)O)O

> <PUBCHEM_TOTAL_CHARGE>
0

> <PUBCHEM_XLOGP3>
1.4

> <RelativeEnergy>
0

> <StereoisomerIndex>
1

> <TautomerIndex>
1

> <POSE_NUMBER>
1

> <LibDockScore>
44.6485

> <HotSpots>
6.61,4.27,3.15,A,86,4
6.01,1.67,2.54,A,83,8
8.81,3.67,3.75,A,88,9

> <-In-Situ Starting Energy>
-571.05573

> <-In-Situ Final Energy>
15.3560191

> <In-Situ Gradient>
0.0009415330902

> <Favorable Total>
8

> <Unfavorable Total>
0

> <Charge Total>
0

> <Hydrophobic Total>
5

> <HydrogenBond Total>
3

> <Other Total>
0

> <Favorable A:LYS6>
0

> <Favorable A:ARG55>
1

> <Favorable A:LEU58>
0

> <Favorable A:LEU61>
0

> <Favorable A:ILE62>
0

> <Favorable A:GLY64>
0

> <Favorable A:SER65>
0

> <Favorable A:TRP66>
0

> <Favorable A:SER69>
0

> <Favorable A:VAL70>
0

> <Favorable A:PRO73>
0

> <Favorable A:ALA74>
0

> <Favorable A:PHE76>
0

> <Favorable A:ALA77>
0

> <Favorable A:THR78>
0

> <Favorable A:GLU79>
0

> <Favorable A:PHE82>
0

> <Favorable A:ARG83>
0

> <Favorable A:LEU85>
0

> <Favorable A:THR86>
0

> <Favorable A:TRP89>
0

> <Favorable A:THR90>
0

> <Favorable A:ASN93>
0

> <Favorable A:HIS94>
0

> <Favorable A:SER96>
0

> <Favorable A:VAL97>
1

> <Favorable A:TRP98>
0

> <Favorable A:PHE140>
0

> <Favorable A:LEU141>
0

> <Favorable A:ASN144>
0

> <Favorable A:ILE148>
0

> <Favorable A:ILE150>
0

> <Favorable A:HIS151>
0

> <Favorable A:ILE152>
0

> <Favorable A:ALA154>
0

> <Favorable A:SER155>
0

> <Favorable A:ILE156>
0

> <Favorable A:GLY158>
0

> <Favorable A:TYR159>
0

> <Favorable A:ARG160>
0

> <Favorable A:ARG161>
0

> <Favorable A:ASN162>
0

> <Favorable A:LYS163>
0

> <Favorable A:SER167>
0

> <Favorable A:ASP168>
0

> <Favorable A:SER169>
0

> <Favorable A:ASN171>
0

> <Favorable A:PHE172>
0

> <Favorable A:THR173>
0

> <Favorable A:ARG174>
0

> <Favorable A:PHE175>
0

> <Favorable A:SER176>
0

> <Favorable A:SER177>
0

> <Favorable A:LEU178>
0

> <Favorable A:ILE179>
0

> <Favorable A:VAL180>
0

> <Favorable A:LEU181>
0

> <Favorable A:SER183>
0

> <Favorable A:THR184>
0

> <Favorable A:PHE186>
0

> <Favorable A:ILE187>
2

> <Favorable A:PHE188>
0

> <Favorable A:ILE189>
0

> <Favorable A:PRO190>
0

> <Favorable A:PHE191>
0

> <Favorable A:TYR240>
1

> <Favorable A:PHE243>
0

> <Favorable A:SER244>
1

> <Favorable A:PHE247>
1

> <Favorable A:PHE248>
1

> <Favorable A:VAL251>
0

> <Favorable A:TRP252>
0

> <Favorable A:SER254>
0

> <Favorable A:GLU255>
0

> <Favorable A:ARG256>
0

> <Favorable A:LEU257>
0

> <Favorable A:GLU258>
0

> <Favorable A:GLU259>
0

> <Favorable A:LEU261>
0

> <Favorable A:ILE262>
0

> <Favorable A:ILE263>
0

> <Favorable A:SER265>
0

> <Favorable A:GLN266>
0

> <Favorable A:MET268>
0

> <Favorable A:GLY269>
0

> <Favorable A:TYR272>
0

> <Favorable A:PRO273>
0

> <Unfavorable A:ARG55>
0

> <Unfavorable A:PRO73>
0

> <Unfavorable A:PHE76>
0

> <Unfavorable A:GLU79>
0

> <Unfavorable A:ARG83>
0

> <Unfavorable A:THR86>
0

> <Unfavorable A:TRP89>
0

> <Unfavorable A:THR90>
0

> <Unfavorable A:ASN93>
0

> <Unfavorable A:TRP98>
0

> <Unfavorable A:ASN144>
0

> <Unfavorable A:SER155>
0

> <Unfavorable A:GLY158>
0

> <Unfavorable A:TYR159>
0

> <Unfavorable A:ASN162>
0

> <Unfavorable A:ASP168>
0

> <Unfavorable A:ASN171>
0

> <Unfavorable A:THR173>
0

> <Unfavorable A:ARG174>
0

> <Unfavorable A:SER183>
0

> <Unfavorable A:THR184>
0

> <Unfavorable A:PHE186>
0

> <Unfavorable A:SER244>
0

> <Unfavorable A:SER254>
0

> <Unfavorable A:GLU255>
0

> <Unfavorable A:SER265>
0

> <Unfavorable A:GLN266>
0

> <Unfavorable A:GLY269>
0

> <Charge A:ARG55>
0

> <Charge A:PHE76>
0

> <Charge A:GLU79>
0

> <Charge A:PHE82>
0

> <Charge A:ARG83>
0

> <Charge A:TRP89>
0

> <Charge A:HIS94>
0

> <Charge A:TRP98>
0

> <Charge A:TYR159>
0

> <Charge A:ARG161>
0

> <Charge A:LYS163>
0

> <Charge A:ASP168>
0

> <Charge A:PHE172>
0

> <Charge A:ARG174>
0

> <Charge A:PHE175>
0

> <Charge A:PHE188>
0

> <Charge A:PHE247>
0

> <Charge A:PHE248>
0

> <Hydrophobic A:LEU58>
0

> <Hydrophobic A:LEU61>
0

> <Hydrophobic A:ILE62>
0

> <Hydrophobic A:TRP66>
0

> <Hydrophobic A:VAL70>
0

> <Hydrophobic A:PRO73>
0

> <Hydrophobic A:ALA74>
0

> <Hydrophobic A:PHE76>
0

> <Hydrophobic A:ALA77>
0

> <Hydrophobic A:THR78>
0

> <Hydrophobic A:PHE82>
0

> <Hydrophobic A:ARG83>
0

> <Hydrophobic A:LEU85>
0

> <Hydrophobic A:TRP89>
0

> <Hydrophobic A:THR90>
0

> <Hydrophobic A:ASN93>
0

> <Hydrophobic A:HIS94>
0

> <Hydrophobic A:VAL97>
1

> <Hydrophobic A:TRP98>
0

> <Hydrophobic A:PHE140>
0

> <Hydrophobic A:LEU141>
0

> <Hydrophobic A:ILE148>
0

> <Hydrophobic A:ILE150>
0

> <Hydrophobic A:HIS151>
0

> <Hydrophobic A:ILE152>
0

> <Hydrophobic A:ALA154>
0

> <Hydrophobic A:SER155>
0

> <Hydrophobic A:ILE156>
0

> <Hydrophobic A:GLY158>
0

> <Hydrophobic A:TYR159>
0

> <Hydrophobic A:ARG160>
0

> <Hydrophobic A:ARG161>
0

> <Hydrophobic A:ASP168>
0

> <Hydrophobic A:ASN171>
0

> <Hydrophobic A:PHE172>
0

> <Hydrophobic A:ARG174>
0

> <Hydrophobic A:PHE175>
0

> <Hydrophobic A:LEU178>
0

> <Hydrophobic A:ILE179>
0

> <Hydrophobic A:VAL180>
0

> <Hydrophobic A:LEU181>
0

> <Hydrophobic A:PHE186>
0

> <Hydrophobic A:ILE187>
2

> <Hydrophobic A:PHE188>
0

> <Hydrophobic A:ILE189>
0

> <Hydrophobic A:PRO190>
0

> <Hydrophobic A:PHE191>
0

> <Hydrophobic A:TYR240>
0

> <Hydrophobic A:PHE243>
0

> <Hydrophobic A:PHE247>
1

> <Hydrophobic A:PHE248>
1

> <Hydrophobic A:VAL251>
0

> <Hydrophobic A:TRP252>
0

> <Hydrophobic A:SER254>
0

> <Hydrophobic A:LEU261>
0

> <Hydrophobic A:ILE262>
0

> <Hydrophobic A:ILE263>
0

> <Hydrophobic A:TYR272>
0

> <Hydrophobic A:PRO273>
0

> <HydrogenBond A:LYS6>
0

> <HydrogenBond A:ARG55>
1

> <HydrogenBond A:GLY64>
0

> <HydrogenBond A:SER65>
0

> <HydrogenBond A:TRP66>
0

> <HydrogenBond A:SER69>
0

> <HydrogenBond A:PRO73>
0

> <HydrogenBond A:ALA74>
0

> <HydrogenBond A:PHE76>
0

> <HydrogenBond A:ALA77>
0

> <HydrogenBond A:THR78>
0

> <HydrogenBond A:GLU79>
0

> <HydrogenBond A:PHE82>
0

> <HydrogenBond A:ARG83>
0

> <HydrogenBond A:LEU85>
0

> <HydrogenBond A:THR86>
0

> <HydrogenBond A:TRP89>
0

> <HydrogenBond A:THR90>
0

> <HydrogenBond A:ASN93>
0

> <HydrogenBond A:HIS94>
0

> <HydrogenBond A:SER96>
0

> <HydrogenBond A:TRP98>
0

> <HydrogenBond A:ASN144>
0

> <HydrogenBond A:HIS151>
0

> <HydrogenBond A:ILE152>
0

> <HydrogenBond A:ALA154>
0

> <HydrogenBond A:SER155>
0

> <HydrogenBond A:ILE156>
0

> <HydrogenBond A:GLY158>
0

> <HydrogenBond A:TYR159>
0

> <HydrogenBond A:ASN162>
0

> <HydrogenBond A:LYS163>
0

> <HydrogenBond A:SER167>
0

> <HydrogenBond A:ASP168>
0

> <HydrogenBond A:SER169>
0

> <HydrogenBond A:ASN171>
0

> <HydrogenBond A:PHE172>
0

> <HydrogenBond A:THR173>
0

> <HydrogenBond A:ARG174>
0

> <HydrogenBond A:PHE175>
0

> <HydrogenBond A:SER176>
0

> <HydrogenBond A:SER177>
0

> <HydrogenBond A:ILE179>
0

> <HydrogenBond A:VAL180>
0

> <HydrogenBond A:SER183>
0

> <HydrogenBond A:THR184>
0

> <HydrogenBond A:PHE186>
0

> <HydrogenBond A:ILE187>
0

> <HydrogenBond A:PRO190>
0

> <HydrogenBond A:TYR240>
1

> <HydrogenBond A:PHE243>
0

> <HydrogenBond A:SER244>
1

> <HydrogenBond A:PHE247>
0

> <HydrogenBond A:VAL251>
0

> <HydrogenBond A:SER254>
0

> <HydrogenBond A:GLU255>
0

> <HydrogenBond A:ARG256>
0

> <HydrogenBond A:LEU257>
0

> <HydrogenBond A:GLU258>
0

> <HydrogenBond A:GLU259>
0

> <HydrogenBond A:ILE262>
0

> <HydrogenBond A:SER265>
0

> <HydrogenBond A:GLN266>
0

> <HydrogenBond A:MET268>
0

> <HydrogenBond A:GLY269>
0

> <HydrogenBond A:PRO273>
0

> <Other A:SER69>
0

> <Other A:TRP89>
0

> <Other A:TYR159>
0

> <Other A:PHE172>
0

> <Other A:SER176>
0

> <Other A:SER265>
0

$$$$
10621
  SciTegic09122300493D

 77 81  0  0  0  0            999 V2000
   12.3177    1.7823   -9.0960 O   0  0  0  1  0  0
   10.6988    3.6147  -10.3115 O   0  0  0  1  0  0
    9.3221    4.1758  -12.0932 O   0  0  0  1  0  0
   12.6865    4.4009   -6.5430 O   0  0  0  1  0  0
   12.7522   -0.5202   -9.1211 O   0  0  0  1  0  0
   14.3640    2.4141   -5.5875 O   0  0  0  1  0  0
   13.6659   -0.2944   -6.4052 O   0  0  0  1  0  0
   11.4414    5.3971  -13.4067 O   0  0  0  1  0  0
   12.7775    3.0033  -13.8998 O   0  0  0  1  0  0
   10.5314    1.1653  -13.7642 O   0  0  0  1  0  0
   12.9648   -0.1690  -13.8751 O   0  0  0  1  0  0
   17.0230    0.1424  -11.1912 O   0  0  0  1  0  0
   16.9633    0.4217  -13.7961 O   0  0  0  1  0  0
   14.5793   -6.2376  -13.8523 O   0  0  0  1  0  0
   12.2151   -5.0889  -13.5141 O   0  0  0  1  0  0
   11.8846    2.9068   -8.3546 C   0  0  1  1  0  0
   12.9788    3.2647   -7.3360 C   0  0  2  1  0  0
   13.2685    2.0715   -6.4143 C   0  0  1  1  0  0
   13.5829    0.8289   -7.2564 C   0  0  2  1  0  0
   11.6439    4.4853  -12.3483 C   0  0  1  1  0  0
   10.4767    4.5311  -11.3581 C   0  0  2  1  0  0
   11.7678    3.0677  -12.9160 C   0  0  1  1  0  0
   10.4437    2.5539  -13.5067 C   0  0  2  1  0  0
   12.4813    0.6131   -8.3152 C   0  0  1  1  0  0
   11.6071    4.0516   -9.3207 C   0  0  0  1  0  0
    9.2595    2.8395  -12.5655 C   0  0  2  1  0  0
    7.9255    2.6803  -13.3052 C   0  0  0  1  0  0
   13.5137   -0.2505  -10.2484 C   0  0  0  1  0  0
   12.8918   -0.2390  -11.4899 C   0  0  0  1  0  0
   13.6373   -0.0954  -12.6524 C   0  0  0  1  0  0
   14.8961   -0.1251  -10.1753 C   0  0  0  1  0  0
   15.0179    0.0847  -12.5695 C   0  0  0  1  0  0
   13.7628   -0.6752  -14.9366 C   0  0  1  1  0  0
   14.9903    0.2298  -15.1121 C   0  0  0  1  0  0
   15.6495    0.0519  -11.3255 C   0  0  0  1  0  0
   15.7778    0.2701  -13.8061 C   0  0  0  1  0  0
   14.0570   -2.1460  -14.6908 C   0  0  0  1  0  0
   13.0406   -2.9477  -14.1864 C   0  0  0  1  0  0
   15.2937   -2.7404  -14.9594 C   0  0  0  1  0  0
   13.2511   -4.2960  -13.9474 C   0  0  0  1  0  0
   15.5140   -4.0918  -14.6966 C   0  0  0  1  0  0
   14.4881   -4.8812  -14.1709 C   0  0  0  1  0  0
   15.8801   -6.7920  -13.9259 C   0  0  0  1  0  0
   11.8944    4.2478   -6.0447 H   0  0
   14.2310    3.2963   -5.2484 H   0  0
   13.7262   -1.1014   -6.9276 H   0  0
   10.5334    5.3400  -13.6959 H   0  0
   12.6747    3.7757  -14.4516 H   0  0
   11.3987    0.9655  -14.1238 H   0  0
   17.4191    0.2942  -12.0489 H   0  0
   12.5887   -5.9444  -13.3271 H   0  0
   10.9609    2.6506   -7.8435 H   0  0
   13.8876    3.5009   -7.8938 H   0  0
   12.4058    1.8314   -5.7845 H   0  0
   14.5538    1.0035   -7.7213 H   0  0
   12.5784    4.7655  -11.8629 H   0  0
   10.3414    5.5354  -10.9530 H   0  0
   12.0701    2.4127  -12.0972 H   0  0
   10.2296    3.0542  -14.4532 H   0  0
   11.5434    0.4117   -7.7944 H   0  0
   11.1967    4.9115   -8.7906 H   0  0
   12.5468    4.3655   -9.7727 H   0  0
    9.2954    2.1472  -11.7227 H   0  0
    7.6691    3.5906  -13.8415 H   0  0
    7.1041    2.4697  -12.6271 H   0  0
    7.9740    1.8728  -14.0327 H   0  0
   11.8215   -0.3630  -11.5554 H   0  0
   15.4130   -0.2025   -9.2322 H   0  0
   13.1763   -0.6254  -15.8536 H   0  0
   14.6693    1.2460  -15.3415 H   0  0
   15.6348   -0.0923  -15.9287 H   0  0
   12.0647   -2.5240  -14.0047 H   0  0
   16.1094   -2.1672  -15.3723 H   0  0
   16.4860   -4.5071  -14.9125 H   0  0
   16.5755   -6.2571  -13.2779 H   0  0
   16.2544   -6.7847  -14.9507 H   0  0
   15.8541   -7.8286  -13.5911 H   0  0
  1 16  1  0
  1 24  1  0
  2 21  1  0
  2 25  1  0
  3 21  1  0
  3 26  1  0
  4 17  1  0
  5 24  1  0
  5 28  1  0
  6 18  1  0
  7 19  1  0
  8 20  1  0
  9 22  1  0
 10 23  1  0
 11 30  1  0
 11 33  1  0
 12 35  1  0
 13 36  2  0
 14 42  1  0
 14 43  1  0
 15 40  1  0
 16 17  1  0
 16 25  1  0
 17 18  1  0
 18 19  1  0
 19 24  1  0
 20 21  1  0
 20 22  1  0
 22 23  1  0
 23 26  1  0
 26 27  1  0
 28 29  2  0
 28 31  1  0
 29 30  1  0
 30 32  2  0
 31 35  2  0
 32 35  1  0
 32 36  1  0
 33 34  1  0
 33 37  1  0
 34 36  1  0
 37 38  2  0
 37 39  1  0
 38 40  1  0
 39 41  2  0
 40 42  2  0
 41 42  1  0
  4 44  1  0
  6 45  1  0
  7 46  1  0
  8 47  1  0
  9 48  1  0
 10 49  1  0
 12 50  1  0
 15 51  1  0
 16 52  1  0
 17 53  1  0
 18 54  1  0
 19 55  1  0
 20 56  1  0
 21 57  1  0
 22 58  1  0
 23 59  1  0
 24 60  1  0
 25 61  1  0
 25 62  1  0
 26 63  1  0
 27 64  1  0
 27 65  1  0
 27 66  1  0
 29 67  1  0
 31 68  1  0
 33 69  1  0
 34 70  1  0
 34 71  1  0
 38 72  1  0
 39 73  1  0
 41 74  1  0
 43 75  1  0
 43 76  1  0
 43 77  1  0
M  END
> <Name>
10621

> <Binding Energy>
-127.3661

> <Ligand Energy>
51.7204

> <Protein Energy>
-7801.1566

> <Complex Energy>
-7876.8024

> <Complex Entropy>
-31.4939

> <Protein Entropy>
-31.4717

> <Ligand Entropy>
-21.1891

> <Entropic Energy>
21.1669

> <AbsoluteEnergy>
69.9379

> <ConfNumber>
16

> <Ionization pH>
7.5

> <IonizationIndex>
1

> <MOL_NUMBER>
697

> <NumberOfIonizations>
1

> <NumberOfStereoisomers>
1

> <NumberOfTautomers>
2

> <PUBCHEM_ATOM_DEF_STEREO_COUNT>
11

> <PUBCHEM_ATOM_UDEF_STEREO_COUNT>
0

> <PUBCHEM_BONDANNOTATIONS>
23  10  5
16  25  5
21  2  5
26  27  6
28  29  8
28  31  8
29  30  8
30  32  8
31  35  8
32  35  8
33  37  5
37  38  8
37  39  8
38  40  8
39  41  8
17  4  6
40  42  8
41  42  8
24  5  5
18  6  5
19  7  6
20  8  6
22  9  6

> <PUBCHEM_BOND_DEF_STEREO_COUNT>
0

> <PUBCHEM_BOND_UDEF_STEREO_COUNT>
0

> <PUBCHEM_CACTVS_COMPLEXITY>
940

> <PUBCHEM_CACTVS_HBOND_ACCEPTOR>
15

> <PUBCHEM_CACTVS_HBOND_DONOR>
8

> <PUBCHEM_CACTVS_ROTATABLE_BOND>
7

> <PUBCHEM_CACTVS_SUBSKEYS>
AAADcfB4PAAAAAAAAAAAAAAAAAAAAAAAAAA0aJECAAAAAACRQAAAGgAACAAADBSwmAMyDoAABgCIAqBSAAACCAAkIAAIiAEGiMgdNzaGNRqieWOl4BUPuQfI7PzOIAABCAAIQABAAAIQABCAAAAAAAAAAA==

> <PUBCHEM_CACTVS_TAUTO_COUNT>
-1

> <PUBCHEM_CACTVS_TPSA>
234

> <PUBCHEM_COMPONENT_COUNT>
1

> <PUBCHEM_COMPOUND_CANONICALIZED>
1

> <PUBCHEM_COMPOUND_CID>
10621

> <PUBCHEM_COORDINATE_TYPE>
1
5
255

> <PUBCHEM_EXACT_MASS>
610.18977037

> <PUBCHEM_HEAVY_ATOM_COUNT>
43

> <PUBCHEM_ISOTOPIC_ATOM_COUNT>
0

> <PUBCHEM_IUPAC_CAS_NAME>
(2S)-5-hydroxy-2-(3-hydroxy-4-methoxyphenyl)-7-[[(2S,3R,4S,5S,6R)-3,4,5-trihydroxy-6-[[(2R,3R,4R,5R,6S)-3,4,5-trihydroxy-6-methyl-2-oxanyl]oxymethyl]-2-oxanyl]oxy]-3,4-dihydro-2H-1-benzopyran-4-one

> <PUBCHEM_IUPAC_INCHI>
InChI=1S/C28H34O15/c1-10-21(32)23(34)25(36)27(40-10)39-9-19-22(33)24(35)26(37)28(43-19)41-12-6-14(30)20-15(31)8-17(42-18(20)7-12)11-3-4-16(38-2)13(29)5-11/h3-7,10,17,19,21-30,32-37H,8-9H2,1-2H3/t10-,1
7-,19+,21-,22+,23+,24-,25+,26+,27+,28+/m0/s1

> <PUBCHEM_IUPAC_INCHIKEY>
QUQPHWDTPGMPEX-QJBIFVCTSA-N

> <PUBCHEM_IUPAC_NAME>
(2S)-5-hydroxy-2-(3-hydroxy-4-methoxyphenyl)-7-[(2S,3R,4S,5S,6R)-3,4,5-trihydroxy-6-[[(2R,3R,4R,5R,6S)-3,4,5-trihydroxy-6-methyloxan-2-yl]oxymethyl]oxan-2-yl]oxy-2,3-dihydrochromen-4-one

> <PUBCHEM_IUPAC_NAME_MARKUP>
(2<I>S</I>)-5-hydroxy-2-(3-hydroxy-4-methoxyphenyl)-7-[(2<I>S</I>,3<I>R</I>,4<I>S</I>,5<I>S</I>,6<I>R</I>)-3,4,5-trihydroxy-6-[[(2<I>R</I>,3<I>R</I>,4<I>R</I>,5<I>R</I>,6<I>S</I>)-3,4,5-trihydroxy-6-m
ethyloxan-2-yl]oxymethyl]oxan-2-yl]oxy-2,3-dihydrochromen-4-one

> <PUBCHEM_IUPAC_OPENEYE_NAME>
(2S)-5-hydroxy-2-(3-hydroxy-4-methoxy-phenyl)-7-[(2S,3R,4S,5S,6R)-3,4,5-trihydroxy-6-[[(2R,3R,4R,5R,6S)-3,4,5-trihydroxy-6-methyl-tetrahydropyran-2-yl]oxymethyl]tetrahydropyran-2-yl]oxy-chroman-4-one

> <PUBCHEM_IUPAC_SYSTEMATIC_NAME>
(2S)-2-(4-methoxy-3-oxidanyl-phenyl)-7-[(2S,3R,4S,5S,6R)-6-[[(2R,3R,4R,5R,6S)-6-methyl-3,4,5-tris(oxidanyl)oxan-2-yl]oxymethyl]-3,4,5-tris(oxidanyl)oxan-2-yl]oxy-5-oxidanyl-2,3-dihydrochromen-4-one

> <PUBCHEM_IUPAC_TRADITIONAL_NAME>
(2S)-5-hydroxy-2-(3-hydroxy-4-methoxy-phenyl)-7-[(2S,3R,4S,5S,6R)-3,4,5-trihydroxy-6-[[(2R,3R,4R,5R,6S)-3,4,5-trihydroxy-6-methyl-tetrahydropyran-2-yl]oxymethyl]tetrahydropyran-2-yl]oxy-chroman-4-one

> <PUBCHEM_MOLECULAR_FORMULA>
C28H34O15

> <PUBCHEM_MOLECULAR_WEIGHT>
610.6

> <PUBCHEM_MONOISOTOPIC_WEIGHT>
610.18977037

> <PUBCHEM_OPENEYE_CAN_SMILES>
CC1C(C(C(C(O1)OCC2C(C(C(C(O2)OC3=CC(=C4C(=O)CC(OC4=C3)C5=CC(=C(C=C5)OC)O)O)O)O)O)O)O)O

> <PUBCHEM_OPENEYE_ISO_SMILES>
C[C@H]1[C@@H]([C@H]([C@H]([C@@H](O1)OC[C@@H]2[C@H]([C@@H]([C@H]([C@@H](O2)OC3=CC(=C4C(=O)C[C@H](OC4=C3)C5=CC(=C(C=C5)OC)O)O)O)O)O)O)O)O

> <PUBCHEM_TOTAL_CHARGE>
0

> <PUBCHEM_XLOGP3_AA>
-1.1

> <RelativeEnergy>
9.21947

> <StereoisomerIndex>
1

> <TautomerIndex>
1

> <POSE_NUMBER>
2

> <LibDockScore>
128.6238

> <HotSpots>
11.01,5.47,-15.65,P,18,8
7.61,3.27,-13.26,A,25,27
15.61,-6.73,-13.65,A,23,43

> <-In-Situ Starting Energy>
-1187.55104

> <-In-Situ Final Energy>
23.2442249

> <In-Situ Gradient>
0.0009928837388

> <Favorable Total>
12

> <Unfavorable Total>
1

> <Charge Total>
0

> <Hydrophobic Total>
5

> <HydrogenBond Total>
6

> <Other Total>
1

> <Favorable A:LYS6>
0

> <Favorable A:ARG55>
0

> <Favorable A:LEU58>
0

> <Favorable A:LEU61>
1

> <Favorable A:ILE62>
0

> <Favorable A:GLY64>
0

> <Favorable A:SER65>
1

> <Favorable A:TRP66>
0

> <Favorable A:SER69>
1

> <Favorable A:VAL70>
0

> <Favorable A:PRO73>
0

> <Favorable A:ALA74>
0

> <Favorable A:PHE76>
0

> <Favorable A:ALA77>
0

> <Favorable A:THR78>
0

> <Favorable A:GLU79>
0

> <Favorable A:PHE82>
0

> <Favorable A:ARG83>
0

> <Favorable A:LEU85>
1

> <Favorable A:THR86>
1

> <Favorable A:TRP89>
1

> <Favorable A:THR90>
0

> <Favorable A:ASN93>
0

> <Favorable A:HIS94>
0

> <Favorable A:SER96>
0

> <Favorable A:VAL97>
0

> <Favorable A:TRP98>
0

> <Favorable A:PHE140>
0

> <Favorable A:LEU141>
0

> <Favorable A:ASN144>
0

> <Favorable A:ILE148>
0

> <Favorable A:ILE150>
0

> <Favorable A:HIS151>
0

> <Favorable A:ILE152>
0

> <Favorable A:ALA154>
0

> <Favorable A:SER155>
0

> <Favorable A:ILE156>
0

> <Favorable A:GLY158>
0

> <Favorable A:TYR159>
0

> <Favorable A:ARG160>
0

> <Favorable A:ARG161>
0

> <Favorable A:ASN162>
0

> <Favorable A:LYS163>
0

> <Favorable A:SER167>
0

> <Favorable A:ASP168>
0

> <Favorable A:SER169>
0

> <Favorable A:ASN171>
0

> <Favorable A:PHE172>
0

> <Favorable A:THR173>
0

> <Favorable A:ARG174>
0

> <Favorable A:PHE175>
0

> <Favorable A:SER176>
0

> <Favorable A:SER177>
0

> <Favorable A:LEU178>
0

> <Favorable A:ILE179>
0

> <Favorable A:VAL180>
0

> <Favorable A:LEU181>
0

> <Favorable A:SER183>
0

> <Favorable A:THR184>
0

> <Favorable A:PHE186>
0

> <Favorable A:ILE187>
0

> <Favorable A:PHE188>
0

> <Favorable A:ILE189>
0

> <Favorable A:PRO190>
0

> <Favorable A:PHE191>
0

> <Favorable A:TYR240>
0

> <Favorable A:PHE243>
0

> <Favorable A:SER244>
0

> <Favorable A:PHE247>
0

> <Favorable A:PHE248>
0

> <Favorable A:VAL251>
0

> <Favorable A:TRP252>
0

> <Favorable A:SER254>
0

> <Favorable A:GLU255>
0

> <Favorable A:ARG256>
0

> <Favorable A:LEU257>
0

> <Favorable A:GLU258>
0

> <Favorable A:GLU259>
2

> <Favorable A:LEU261>
0

> <Favorable A:ILE262>
2

> <Favorable A:ILE263>
0

> <Favorable A:SER265>
1

> <Favorable A:GLN266>
1

> <Favorable A:MET268>
0

> <Favorable A:GLY269>
0

> <Favorable A:TYR272>
0

> <Favorable A:PRO273>
0

> <Unfavorable A:ARG55>
0

> <Unfavorable A:PRO73>
0

> <Unfavorable A:PHE76>
0

> <Unfavorable A:GLU79>
0

> <Unfavorable A:ARG83>
0

> <Unfavorable A:THR86>
0

> <Unfavorable A:TRP89>
1

> <Unfavorable A:THR90>
0

> <Unfavorable A:ASN93>
0

> <Unfavorable A:TRP98>
0

> <Unfavorable A:ASN144>
0

> <Unfavorable A:SER155>
0

> <Unfavorable A:GLY158>
0

> <Unfavorable A:TYR159>
0

> <Unfavorable A:ASN162>
0

> <Unfavorable A:ASP168>
0

> <Unfavorable A:ASN171>
0

> <Unfavorable A:THR173>
0

> <Unfavorable A:ARG174>
0

> <Unfavorable A:SER183>
0

> <Unfavorable A:THR184>
0

> <Unfavorable A:PHE186>
0

> <Unfavorable A:SER244>
0

> <Unfavorable A:SER254>
0

> <Unfavorable A:GLU255>
0

> <Unfavorable A:SER265>
0

> <Unfavorable A:GLN266>
0

> <Unfavorable A:GLY269>
0

> <Charge A:ARG55>
0

> <Charge A:PHE76>
0

> <Charge A:GLU79>
0

> <Charge A:PHE82>
0

> <Charge A:ARG83>
0

> <Charge A:TRP89>
0

> <Charge A:HIS94>
0

> <Charge A:TRP98>
0

> <Charge A:TYR159>
0

> <Charge A:ARG161>
0

> <Charge A:LYS163>
0

> <Charge A:ASP168>
0

> <Charge A:PHE172>
0

> <Charge A:ARG174>
0

> <Charge A:PHE175>
0

> <Charge A:PHE188>
0

> <Charge A:PHE247>
0

> <Charge A:PHE248>
0

> <Hydrophobic A:LEU58>
0

> <Hydrophobic A:LEU61>
1

> <Hydrophobic A:ILE62>
0

> <Hydrophobic A:TRP66>
0

> <Hydrophobic A:VAL70>
0

> <Hydrophobic A:PRO73>
0

> <Hydrophobic A:ALA74>
0

> <Hydrophobic A:PHE76>
0

> <Hydrophobic A:ALA77>
0

> <Hydrophobic A:THR78>
0

> <Hydrophobic A:PHE82>
0

> <Hydrophobic A:ARG83>
0

> <Hydrophobic A:LEU85>
1

> <Hydrophobic A:TRP89>
1

> <Hydrophobic A:THR90>
0

> <Hydrophobic A:ASN93>
0

> <Hydrophobic A:HIS94>
0

> <Hydrophobic A:VAL97>
0

> <Hydrophobic A:TRP98>
0

> <Hydrophobic A:PHE140>
0

> <Hydrophobic A:LEU141>
0

> <Hydrophobic A:ILE148>
0

> <Hydrophobic A:ILE150>
0

> <Hydrophobic A:HIS151>
0

> <Hydrophobic A:ILE152>
0

> <Hydrophobic A:ALA154>
0

> <Hydrophobic A:SER155>
0

> <Hydrophobic A:ILE156>
0

> <Hydrophobic A:GLY158>
0

> <Hydrophobic A:TYR159>
0

> <Hydrophobic A:ARG160>
0

> <Hydrophobic A:ARG161>
0

> <Hydrophobic A:ASP168>
0

> <Hydrophobic A:ASN171>
0

> <Hydrophobic A:PHE172>
0

> <Hydrophobic A:ARG174>
0

> <Hydrophobic A:PHE175>
0

> <Hydrophobic A:LEU178>
0

> <Hydrophobic A:ILE179>
0

> <Hydrophobic A:VAL180>
0

> <Hydrophobic A:LEU181>
0

> <Hydrophobic A:PHE186>
0

> <Hydrophobic A:ILE187>
0

> <Hydrophobic A:PHE188>
0

> <Hydrophobic A:ILE189>
0

> <Hydrophobic A:PRO190>
0

> <Hydrophobic A:PHE191>
0

> <Hydrophobic A:TYR240>
0

> <Hydrophobic A:PHE243>
0

> <Hydrophobic A:PHE247>
0

> <Hydrophobic A:PHE248>
0

> <Hydrophobic A:VAL251>
0

> <Hydrophobic A:TRP252>
0

> <Hydrophobic A:SER254>
0

> <Hydrophobic A:LEU261>
0

> <Hydrophobic A:ILE262>
2

> <Hydrophobic A:ILE263>
0

> <Hydrophobic A:TYR272>
0

> <Hydrophobic A:PRO273>
0

> <HydrogenBond A:LYS6>
0

> <HydrogenBond A:ARG55>
0

> <HydrogenBond A:GLY64>
0

> <HydrogenBond A:SER65>
1

> <HydrogenBond A:TRP66>
0

> <HydrogenBond A:SER69>
0

> <HydrogenBond A:PRO73>
0

> <HydrogenBond A:ALA74>
0

> <HydrogenBond A:PHE76>
0

> <HydrogenBond A:ALA77>
0

> <HydrogenBond A:THR78>
0

> <HydrogenBond A:GLU79>
0

> <HydrogenBond A:PHE82>
0

> <HydrogenBond A:ARG83>
0

> <HydrogenBond A:LEU85>
0

> <HydrogenBond A:THR86>
1

> <HydrogenBond A:TRP89>
0

> <HydrogenBond A:THR90>
0

> <HydrogenBond A:ASN93>
0

> <HydrogenBond A:HIS94>
0

> <HydrogenBond A:SER96>
0

> <HydrogenBond A:TRP98>
0

> <HydrogenBond A:ASN144>
0

> <HydrogenBond A:HIS151>
0

> <HydrogenBond A:ILE152>
0

> <HydrogenBond A:ALA154>
0

> <HydrogenBond A:SER155>
0

> <HydrogenBond A:ILE156>
0

> <HydrogenBond A:GLY158>
0

> <HydrogenBond A:TYR159>
0

> <HydrogenBond A:ASN162>
0

> <HydrogenBond A:LYS163>
0

> <HydrogenBond A:SER167>
0

> <HydrogenBond A:ASP168>
0

> <HydrogenBond A:SER169>
0

> <HydrogenBond A:ASN171>
0

> <HydrogenBond A:PHE172>
0

> <HydrogenBond A:THR173>
0

> <HydrogenBond A:ARG174>
0

> <HydrogenBond A:PHE175>
0

> <HydrogenBond A:SER176>
0

> <HydrogenBond A:SER177>
0

> <HydrogenBond A:ILE179>
0

> <HydrogenBond A:VAL180>
0

> <HydrogenBond A:SER183>
0

> <HydrogenBond A:THR184>
0

> <HydrogenBond A:PHE186>
0

> <HydrogenBond A:ILE187>
0

> <HydrogenBond A:PRO190>
0

> <HydrogenBond A:TYR240>
0

> <HydrogenBond A:PHE243>
0

> <HydrogenBond A:SER244>
0

> <HydrogenBond A:PHE247>
0

> <HydrogenBond A:VAL251>
0

> <HydrogenBond A:SER254>
0

> <HydrogenBond A:GLU255>
0

> <HydrogenBond A:ARG256>
0

> <HydrogenBond A:LEU257>
0

> <HydrogenBond A:GLU258>
0

> <HydrogenBond A:GLU259>
2

> <HydrogenBond A:ILE262>
0

> <HydrogenBond A:SER265>
1

> <HydrogenBond A:GLN266>
1

> <HydrogenBond A:MET268>
0

> <HydrogenBond A:GLY269>
0

> <HydrogenBond A:PRO273>
0

> <Other A:SER69>
1

> <Other A:TRP89>
0

> <Other A:TYR159>
0

> <Other A:PHE172>
0

> <Other A:SER176>
0

> <Other A:SER265>
0

$$$$
83489
  SciTegic09122300493D

 74 78  0  0  0  0            999 V2000
   12.4861    2.4060  -11.7166 O   0  0  0  1  0  0
   12.5414    4.9207   -9.2545 O   0  0  0  1  0  0
   13.8685    3.6551   -7.8144 O   0  0  0  1  0  0
   11.5105    5.8806  -11.9452 O   0  0  0  1  0  0
   13.4038    0.8655  -13.1200 O   0  0  0  1  0  0
   11.0910    4.9005  -14.6098 O   0  0  0  1  0  0
   13.0587    2.8229  -15.2552 O   0  0  0  1  0  0
   11.1071    6.0117   -6.9940 O   0  0  0  1  0  0
   12.2385    5.7638   -4.7438 O   0  0  0  1  0  0
   13.9846    3.5395   -4.1616 O   0  0  0  1  0  0
   17.4608    0.7224  -10.5798 O   0  0  0  1  0  0
   13.3598   -1.2332   -8.8176 O   0  0  0  1  0  0
   15.8040   -1.5683   -7.7696 O   0  0  0  1  0  0
   22.1746    2.6037  -10.9328 O   0  0  0  1  0  0
   22.5784    3.8761   -8.6868 O   0  0  0  1  0  0
   12.4448    3.7378  -11.2877 C   0  0  1  1  0  0
   11.5218    4.5012  -12.2539 C   0  0  2  1  0  0
   12.0306    4.3451  -13.6984 C   0  0  1  1  0  0
   12.3260    2.8731  -14.0450 C   0  0  2  1  0  0
   11.8852    4.8373   -6.9502 C   0  0  1  1  0  0
   13.0625    4.8254   -7.9442 C   0  0  2  1  0  0
   12.3028    4.5671   -5.4991 C   0  0  1  1  0  0
   13.7326    4.0314   -5.4608 C   0  0  2  1  0  0
   13.1752    2.2471  -12.9328 C   0  0  1  1  0  0
   11.9978    3.7480   -9.8302 C   0  0  0  1  0  0
   13.8670    2.9789   -6.5655 C   0  0  2  1  0  0
   15.1325    2.1264   -6.4488 C   0  0  0  1  0  0
   14.1021    0.4020  -12.0109 C   0  0  0  1  0  0
   15.4589    0.6713  -11.8815 C   0  0  0  1  0  0
   16.1261    0.3465  -10.7120 C   0  0  0  1  0  0
   13.4229   -0.2274  -10.9725 C   0  0  0  1  0  0
   17.7416    1.0667   -9.2354 C   0  0  1  1  0  0
   15.4492   -0.3112   -9.6854 C   0  0  0  1  0  0
   17.6088   -0.1633   -8.3447 C   0  0  0  1  0  0
   14.0830   -0.5752   -9.8009 C   0  0  0  1  0  0
   16.2223   -0.7510   -8.5258 C   0  0  0  1  0  0
   19.0943    1.6969   -9.0853 C   0  0  0  1  0  0
   20.0166    1.7557  -10.1297 C   0  0  0  1  0  0
   19.3959    2.3004   -7.8701 C   0  0  0  1  0  0
   21.2068    2.4579   -9.9523 C   0  0  0  1  0  0
   20.5367    3.0640   -7.7265 C   0  0  0  1  0  0
   21.4397    3.1241   -8.7664 C   0  0  0  1  0  0
   11.4029    5.9592  -10.9956 H   0  0
   11.0535    5.8517  -14.5079 H   0  0
   13.2761    1.9146  -15.4524 H   0  0
   11.6289    6.6952   -6.5819 H   0  0
   12.4253    5.5685   -3.8307 H   0  0
   14.1484    4.2644   -3.5657 H   0  0
   13.9186   -1.5867   -8.1109 H   0  0
   22.1067    1.9097  -11.5749 H   0  0
   22.9846    3.8004   -9.5431 H   0  0
   13.4540    4.1545  -11.3233 H   0  0
   10.5029    4.1042  -12.1952 H   0  0
   12.9873    4.8661  -13.7739 H   0  0
   11.3771    2.3360  -14.1443 H   0  0
   11.2338    4.0198   -7.2575 H   0  0
   13.6967    5.6951   -7.7650 H   0  0
   11.6004    3.8292   -5.0962 H   0  0
   14.4383    4.8342   -5.7091 H   0  0
   14.1344    2.7705  -12.8946 H   0  0
   10.9119    3.7326   -9.7241 H   0  0
   12.3698    2.8447   -9.3476 H   0  0
   13.0090    2.3052   -6.5342 H   0  0
   16.0342    2.7303   -6.3771 H   0  0
   15.2287    1.4782   -7.3158 H   0  0
   15.0942    1.4900   -5.5663 H   0  0
   15.9897    1.1787  -12.6728 H   0  0
   12.3650   -0.4168  -11.0678 H   0  0
   17.0285    1.8317   -8.9142 H   0  0
   18.3510   -0.9181   -8.6017 H   0  0
   17.7235    0.0978   -7.2954 H   0  0
   19.7746    1.2886  -11.0726 H   0  0
   18.7125    2.2219   -7.0357 H   0  0
   20.7059    3.6216   -6.8204 H   0  0
  1 16  1  0
  1 24  1  0
  2 21  1  0
  2 25  1  0
  3 21  1  0
  3 26  1  0
  4 17  1  0
  5 24  1  0
  5 28  1  0
  6 18  1  0
  7 19  1  0
  8 20  1  0
  9 22  1  0
 10 23  1  0
 11 30  1  0
 11 32  1  0
 12 35  1  0
 13 36  2  0
 14 40  1  0
 15 42  1  0
 16 17  1  0
 16 25  1  0
 17 18  1  0
 18 19  1  0
 19 24  1  0
 20 21  1  0
 20 22  1  0
 22 23  1  0
 23 26  1  0
 26 27  1  0
 28 29  2  0
 28 31  1  0
 29 30  1  0
 30 33  2  0
 31 35  2  0
 32 34  1  0
 32 37  1  0
 33 35  1  0
 33 36  1  0
 34 36  1  0
 37 38  2  0
 37 39  1  0
 38 40  1  0
 39 41  2  0
 40 42  2  0
 41 42  1  0
  4 43  1  0
  6 44  1  0
  7 45  1  0
  8 46  1  0
  9 47  1  0
 10 48  1  0
 12 49  1  0
 14 50  1  0
 15 51  1  0
 16 52  1  0
 17 53  1  0
 18 54  1  0
 19 55  1  0
 20 56  1  0
 21 57  1  0
 22 58  1  0
 23 59  1  0
 24 60  1  0
 25 61  1  0
 25 62  1  0
 26 63  1  0
 27 64  1  0
 27 65  1  0
 27 66  1  0
 29 67  1  0
 31 68  1  0
 32 69  1  0
 34 70  1  0
 34 71  1  0
 38 72  1  0
 39 73  1  0
 41 74  1  0
M  END
> <Name>
83489

> <Binding Energy>
-116.2131

> <Ligand Energy>
70.6385

> <Protein Energy>
-7801.1566

> <Complex Energy>
-7846.7313

> <Complex Entropy>
-31.4935

> <Protein Entropy>
-31.4717

> <Ligand Entropy>
-21.226

> <Entropic Energy>
21.2042

> <AbsoluteEnergy>
67.5406

> <ConfNumber>
66

> <Ionization pH>
7.5

> <IonizationIndex>
1

> <MOL_NUMBER>
720

> <NumberOfIonizations>
1

> <NumberOfStereoisomers>
1

> <NumberOfTautomers>
2

> <PUBCHEM_ATOM_DEF_STEREO_COUNT>
11

> <PUBCHEM_ATOM_UDEF_STEREO_COUNT>
0

> <PUBCHEM_BONDANNOTATIONS>
23  10  5
16  25  5
21  2  5
26  27  6
28  29  8
28  31  8
29  30  8
30  33  8
31  35  8
32  37  5
33  35  8
37  38  8
37  39  8
38  40  8
39  41  8
17  4  6
40  42  8
41  42  8
24  5  5
18  6  5
19  7  6
20  8  6
22  9  6

> <PUBCHEM_BOND_DEF_STEREO_COUNT>
0

> <PUBCHEM_BOND_UDEF_STEREO_COUNT>
0

> <PUBCHEM_CACTVS_COMPLEXITY>
924

> <PUBCHEM_CACTVS_HBOND_ACCEPTOR>
15

> <PUBCHEM_CACTVS_HBOND_DONOR>
9

> <PUBCHEM_CACTVS_ROTATABLE_BOND>
6

> <PUBCHEM_CACTVS_SUBSKEYS>
AAADcfB4PAAAAAAAAAAAAAAAAAAAAAAAAAA0aJECAAAAAACRQAAAGgAACAAADBSwmAMyDoAABgCIAqBSAAACCAAkIAAIiAEGiMgdNzaGNRqieWGl4BUPuQfI7PzOIAABCAAIQABAAAIQABCAAAAAAAAAAA==

> <PUBCHEM_CACTVS_TAUTO_COUNT>
90

> <PUBCHEM_CACTVS_TPSA>
245

> <PUBCHEM_COMPONENT_COUNT>
1

> <PUBCHEM_COMPOUND_CANONICALIZED>
1

> <PUBCHEM_COMPOUND_CID>
83489

> <PUBCHEM_COORDINATE_TYPE>
1
5
255

> <PUBCHEM_EXACT_MASS>
596.17412031

> <PUBCHEM_HEAVY_ATOM_COUNT>
42

> <PUBCHEM_ISOTOPIC_ATOM_COUNT>
0

> <PUBCHEM_IUPAC_CAS_NAME>
(2S)-2-(3,4-dihydroxyphenyl)-5-hydroxy-7-[[(2S,3R,4S,5S,6R)-3,4,5-trihydroxy-6-[[(2R,3R,4R,5R,6S)-3,4,5-trihydroxy-6-methyl-2-oxanyl]oxymethyl]-2-oxanyl]oxy]-3,4-dihydro-2H-1-benzopyran-4-one

> <PUBCHEM_IUPAC_INCHI>
InChI=1S/C27H32O15/c1-9-20(32)22(34)24(36)26(39-9)38-8-18-21(33)23(35)25(37)27(42-18)40-11-5-14(30)19-15(31)7-16(41-17(19)6-11)10-2-3-12(28)13(29)4-10/h2-6,9,16,18,20-30,32-37H,7-8H2,1H3/t9-,16-,18+,2
0-,21+,22+,23-,24+,25+,26+,27+/m0/s1

> <PUBCHEM_IUPAC_INCHIKEY>
OMQADRGFMLGFJF-MNPJBKLOSA-N

> <PUBCHEM_IUPAC_NAME>
(2S)-2-(3,4-dihydroxyphenyl)-5-hydroxy-7-[(2S,3R,4S,5S,6R)-3,4,5-trihydroxy-6-[[(2R,3R,4R,5R,6S)-3,4,5-trihydroxy-6-methyloxan-2-yl]oxymethyl]oxan-2-yl]oxy-2,3-dihydrochromen-4-one

> <PUBCHEM_IUPAC_NAME_MARKUP>
(2<I>S</I>)-2-(3,4-dihydroxyphenyl)-5-hydroxy-7-[(2<I>S</I>,3<I>R</I>,4<I>S</I>,5<I>S</I>,6<I>R</I>)-3,4,5-trihydroxy-6-[[(2<I>R</I>,3<I>R</I>,4<I>R</I>,5<I>R</I>,6<I>S</I>)-3,4,5-trihydroxy-6-methylo
xan-2-yl]oxymethyl]oxan-2-yl]oxy-2,3-dihydrochromen-4-one

> <PUBCHEM_IUPAC_OPENEYE_NAME>
(2S)-2-(3,4-dihydroxyphenyl)-5-hydroxy-7-[(2S,3R,4S,5S,6R)-3,4,5-trihydroxy-6-[[(2R,3R,4R,5R,6S)-3,4,5-trihydroxy-6-methyl-tetrahydropyran-2-yl]oxymethyl]tetrahydropyran-2-yl]oxy-chroman-4-one

> <PUBCHEM_IUPAC_SYSTEMATIC_NAME>
(2S)-2-[3,4-bis(oxidanyl)phenyl]-7-[(2S,3R,4S,5S,6R)-6-[[(2R,3R,4R,5R,6S)-6-methyl-3,4,5-tris(oxidanyl)oxan-2-yl]oxymethyl]-3,4,5-tris(oxidanyl)oxan-2-yl]oxy-5-oxidanyl-2,3-dihydrochromen-4-one

> <PUBCHEM_IUPAC_TRADITIONAL_NAME>
(2S)-2-(3,4-dihydroxyphenyl)-5-hydroxy-7-[(2S,3R,4S,5S,6R)-3,4,5-trihydroxy-6-[[(2R,3R,4R,5R,6S)-3,4,5-trihydroxy-6-methyl-tetrahydropyran-2-yl]oxymethyl]tetrahydropyran-2-yl]oxy-chroman-4-one

> <PUBCHEM_MOLECULAR_FORMULA>
C27H32O15

> <PUBCHEM_MOLECULAR_WEIGHT>
596.5

> <PUBCHEM_MONOISOTOPIC_WEIGHT>
596.17412031

> <PUBCHEM_OPENEYE_CAN_SMILES>
CC1C(C(C(C(O1)OCC2C(C(C(C(O2)OC3=CC(=C4C(=O)CC(OC4=C3)C5=CC(=C(C=C5)O)O)O)O)O)O)O)O)O

> <PUBCHEM_OPENEYE_ISO_SMILES>
C[C@H]1[C@@H]([C@H]([C@H]([C@@H](O1)OC[C@@H]2[C@H]([C@@H]([C@H]([C@@H](O2)OC3=CC(=C4C(=O)C[C@H](OC4=C3)C5=CC(=C(C=C5)O)O)O)O)O)O)O)O)O

> <PUBCHEM_TOTAL_CHARGE>
0

> <PUBCHEM_XLOGP3_AA>
-1.4

> <RelativeEnergy>
14.2129

> <StereoisomerIndex>
1

> <TautomerIndex>
1

> <POSE_NUMBER>
1

> <LibDockScore>
132.3014

> <HotSpots>
14.01,6.27,-5.46,P,57,9
16.81,-2.53,-6.66,P,47,13
21.81,4.27,-8.86,P,37,15

> <-In-Situ Starting Energy>
-1270900982

> <-In-Situ Final Energy>
9.51213243

> <In-Situ Gradient>
0.0009295753861

> <Favorable Total>
14

> <Unfavorable Total>
0

> <Charge Total>
0

> <Hydrophobic Total>
5

> <HydrogenBond Total>
9

> <Other Total>
0

> <Favorable A:LYS6>
0

> <Favorable A:ARG55>
0

> <Favorable A:LEU58>
0

> <Favorable A:LEU61>
0

> <Favorable A:ILE62>
0

> <Favorable A:GLY64>
0

> <Favorable A:SER65>
0

> <Favorable A:TRP66>
0

> <Favorable A:SER69>
0

> <Favorable A:VAL70>
0

> <Favorable A:PRO73>
0

> <Favorable A:ALA74>
0

> <Favorable A:PHE76>
0

> <Favorable A:ALA77>
0

> <Favorable A:THR78>
0

> <Favorable A:GLU79>
0

> <Favorable A:PHE82>
1

> <Favorable A:ARG83>
0

> <Favorable A:LEU85>
0

> <Favorable A:THR86>
2

> <Favorable A:TRP89>
1

> <Favorable A:THR90>
0

> <Favorable A:ASN93>
0

> <Favorable A:HIS94>
0

> <Favorable A:SER96>
0

> <Favorable A:VAL97>
0

> <Favorable A:TRP98>
0

> <Favorable A:PHE140>
0

> <Favorable A:LEU141>
0

> <Favorable A:ASN144>
0

> <Favorable A:ILE148>
0

> <Favorable A:ILE150>
0

> <Favorable A:HIS151>
0

> <Favorable A:ILE152>
0

> <Favorable A:ALA154>
0

> <Favorable A:SER155>
0

> <Favorable A:ILE156>
0

> <Favorable A:GLY158>
0

> <Favorable A:TYR159>
0

> <Favorable A:ARG160>
0

> <Favorable A:ARG161>
0

> <Favorable A:ASN162>
0

> <Favorable A:LYS163>
0

> <Favorable A:SER167>
0

> <Favorable A:ASP168>
0

> <Favorable A:SER169>
0

> <Favorable A:ASN171>
0

> <Favorable A:PHE172>
0

> <Favorable A:THR173>
1

> <Favorable A:ARG174>
0

> <Favorable A:PHE175>
0

> <Favorable A:SER176>
0

> <Favorable A:SER177>
0

> <Favorable A:LEU178>
0

> <Favorable A:ILE179>
0

> <Favorable A:VAL180>
2

> <Favorable A:LEU181>
0

> <Favorable A:SER183>
2

> <Favorable A:THR184>
0

> <Favorable A:PHE186>
0

> <Favorable A:ILE187>
0

> <Favorable A:PHE188>
0

> <Favorable A:ILE189>
0

> <Favorable A:PRO190>
0

> <Favorable A:PHE191>
0

> <Favorable A:TYR240>
0

> <Favorable A:PHE243>
0

> <Favorable A:SER244>
0

> <Favorable A:PHE247>
0

> <Favorable A:PHE248>
0

> <Favorable A:VAL251>
1

> <Favorable A:TRP252>
0

> <Favorable A:SER254>
1

> <Favorable A:GLU255>
0

> <Favorable A:ARG256>
0

> <Favorable A:LEU257>
0

> <Favorable A:GLU258>
0

> <Favorable A:GLU259>
0

> <Favorable A:LEU261>
0

> <Favorable A:ILE262>
2

> <Favorable A:ILE263>
0

> <Favorable A:SER265>
1

> <Favorable A:GLN266>
0

> <Favorable A:MET268>
0

> <Favorable A:GLY269>
0

> <Favorable A:TYR272>
0

> <Favorable A:PRO273>
0

> <Unfavorable A:ARG55>
0

> <Unfavorable A:PRO73>
0

> <Unfavorable A:PHE76>
0

> <Unfavorable A:GLU79>
0

> <Unfavorable A:ARG83>
0

> <Unfavorable A:THR86>
0

> <Unfavorable A:TRP89>
0

> <Unfavorable A:THR90>
0

> <Unfavorable A:ASN93>
0

> <Unfavorable A:TRP98>
0

> <Unfavorable A:ASN144>
0

> <Unfavorable A:SER155>
0

> <Unfavorable A:GLY158>
0

> <Unfavorable A:TYR159>
0

> <Unfavorable A:ASN162>
0

> <Unfavorable A:ASP168>
0

> <Unfavorable A:ASN171>
0

> <Unfavorable A:THR173>
0

> <Unfavorable A:ARG174>
0

> <Unfavorable A:SER183>
0

> <Unfavorable A:THR184>
0

> <Unfavorable A:PHE186>
0

> <Unfavorable A:SER244>
0

> <Unfavorable A:SER254>
0

> <Unfavorable A:GLU255>
0

> <Unfavorable A:SER265>
0

> <Unfavorable A:GLN266>
0

> <Unfavorable A:GLY269>
0

> <Charge A:ARG55>
0

> <Charge A:PHE76>
0

> <Charge A:GLU79>
0

> <Charge A:PHE82>
0

> <Charge A:ARG83>
0

> <Charge A:TRP89>
0

> <Charge A:HIS94>
0

> <Charge A:TRP98>
0

> <Charge A:TYR159>
0

> <Charge A:ARG161>
0

> <Charge A:LYS163>
0

> <Charge A:ASP168>
0

> <Charge A:PHE172>
0

> <Charge A:ARG174>
0

> <Charge A:PHE175>
0

> <Charge A:PHE188>
0

> <Charge A:PHE247>
0

> <Charge A:PHE248>
0

> <Hydrophobic A:LEU58>
0

> <Hydrophobic A:LEU61>
0

> <Hydrophobic A:ILE62>
0

> <Hydrophobic A:TRP66>
0

> <Hydrophobic A:VAL70>
0

> <Hydrophobic A:PRO73>
0

> <Hydrophobic A:ALA74>
0

> <Hydrophobic A:PHE76>
0

> <Hydrophobic A:ALA77>
0

> <Hydrophobic A:THR78>
0

> <Hydrophobic A:PHE82>
0

> <Hydrophobic A:ARG83>
0

> <Hydrophobic A:LEU85>
0

> <Hydrophobic A:TRP89>
0

> <Hydrophobic A:THR90>
0

> <Hydrophobic A:ASN93>
0

> <Hydrophobic A:HIS94>
0

> <Hydrophobic A:VAL97>
0

> <Hydrophobic A:TRP98>
0

> <Hydrophobic A:PHE140>
0

> <Hydrophobic A:LEU141>
0

> <Hydrophobic A:ILE148>
0

> <Hydrophobic A:ILE150>
0

> <Hydrophobic A:HIS151>
0

> <Hydrophobic A:ILE152>
0

> <Hydrophobic A:ALA154>
0

> <Hydrophobic A:SER155>
0

> <Hydrophobic A:ILE156>
0

> <Hydrophobic A:GLY158>
0

> <Hydrophobic A:TYR159>
0

> <Hydrophobic A:ARG160>
0

> <Hydrophobic A:ARG161>
0

> <Hydrophobic A:ASP168>
0

> <Hydrophobic A:ASN171>
0

> <Hydrophobic A:PHE172>
0

> <Hydrophobic A:ARG174>
0

> <Hydrophobic A:PHE175>
0

> <Hydrophobic A:LEU178>
0

> <Hydrophobic A:ILE179>
0

> <Hydrophobic A:VAL180>
2

> <Hydrophobic A:LEU181>
0

> <Hydrophobic A:PHE186>
0

> <Hydrophobic A:ILE187>
0

> <Hydrophobic A:PHE188>
0

> <Hydrophobic A:ILE189>
0

> <Hydrophobic A:PRO190>
0

> <Hydrophobic A:PHE191>
0

> <Hydrophobic A:TYR240>
0

> <Hydrophobic A:PHE243>
0

> <Hydrophobic A:PHE247>
0

> <Hydrophobic A:PHE248>
0

> <Hydrophobic A:VAL251>
1

> <Hydrophobic A:TRP252>
0

> <Hydrophobic A:SER254>
1

> <Hydrophobic A:LEU261>
0

> <Hydrophobic A:ILE262>
1

> <Hydrophobic A:ILE263>
0

> <Hydrophobic A:TYR272>
0

> <Hydrophobic A:PRO273>
0

> <HydrogenBond A:LYS6>
0

> <HydrogenBond A:ARG55>
0

> <HydrogenBond A:GLY64>
0

> <HydrogenBond A:SER65>
0

> <HydrogenBond A:TRP66>
0

> <HydrogenBond A:SER69>
0

> <HydrogenBond A:PRO73>
0

> <HydrogenBond A:ALA74>
0

> <HydrogenBond A:PHE76>
0

> <HydrogenBond A:ALA77>
0

> <HydrogenBond A:THR78>
0

> <HydrogenBond A:GLU79>
0

> <HydrogenBond A:PHE82>
1

> <HydrogenBond A:ARG83>
0

> <HydrogenBond A:LEU85>
0

> <HydrogenBond A:THR86>
2

> <HydrogenBond A:TRP89>
1

> <HydrogenBond A:THR90>
0

> <HydrogenBond A:ASN93>
0

> <HydrogenBond A:HIS94>
0

> <HydrogenBond A:SER96>
0

> <HydrogenBond A:TRP98>
0

> <HydrogenBond A:ASN144>
0

> <HydrogenBond A:HIS151>
0

> <HydrogenBond A:ILE152>
0

> <HydrogenBond A:ALA154>
0

> <HydrogenBond A:SER155>
0

> <HydrogenBond A:ILE156>
0

> <HydrogenBond A:GLY158>
0

> <HydrogenBond A:TYR159>
0

> <HydrogenBond A:ASN162>
0

> <HydrogenBond A:LYS163>
0

> <HydrogenBond A:SER167>
0

> <HydrogenBond A:ASP168>
0

> <HydrogenBond A:SER169>
0

> <HydrogenBond A:ASN171>
0

> <HydrogenBond A:PHE172>
0

> <HydrogenBond A:THR173>
1

> <HydrogenBond A:ARG174>
0

> <HydrogenBond A:PHE175>
0

> <HydrogenBond A:SER176>
0

> <HydrogenBond A:SER177>
0

> <HydrogenBond A:ILE179>
0

> <HydrogenBond A:VAL180>
0

> <HydrogenBond A:SER183>
2

> <HydrogenBond A:THR184>
0

> <HydrogenBond A:PHE186>
0

> <HydrogenBond A:ILE187>
0

> <HydrogenBond A:PRO190>
0

> <HydrogenBond A:TYR240>
0

> <HydrogenBond A:PHE243>
0

> <HydrogenBond A:SER244>
0

> <HydrogenBond A:PHE247>
0

> <HydrogenBond A:VAL251>
0

> <HydrogenBond A:SER254>
0

> <HydrogenBond A:GLU255>
0

> <HydrogenBond A:ARG256>
0

> <HydrogenBond A:LEU257>
0

> <HydrogenBond A:GLU258>
0

> <HydrogenBond A:GLU259>
0

> <HydrogenBond A:ILE262>
1

> <HydrogenBond A:SER265>
1

> <HydrogenBond A:GLN266>
0

> <HydrogenBond A:MET268>
0

> <HydrogenBond A:GLY269>
0

> <HydrogenBond A:PRO273>
0

> <Other A:SER69>
0

> <Other A:TRP89>
0

> <Other A:TYR159>
0

> <Other A:PHE172>
0

> <Other A:SER176>
0

> <Other A:SER265>
0

$$$$
92836
  SciTegic09122300493D

 50 49  0  0  0  0            999 V2000
   11.4271    5.4506  -12.8920 O   0  0  0  1  0  0
    9.2617    2.7589  -13.6037 O   0  5  0  1  0  0
   10.6327    3.9515  -14.7812 O   0  0  0  1  0  0
   13.4621    4.0875   -7.1697 C   0  0  0  1  0  0
   12.9032    3.9852   -5.7382 C   0  0  0  1  0  0
   13.6482    5.5297   -7.6913 C   0  0  0  1  0  0
   11.4344    4.4150   -5.6440 C   0  0  0  1  0  0
   12.5062    6.0447   -8.5770 C   0  0  0  1  0  0
   11.2523    5.8442   -5.1139 C   0  0  0  1  0  0
    9.7921    6.3453   -5.1353 C   0  0  0  1  0  0
   12.3873    5.2757   -9.9066 C   0  0  0  1  0  0
    9.3459    7.6935   -4.5110 C   0  0  0  1  0  0
   11.0404    4.5585  -10.0293 C   0  0  0  1  0  0
    7.8351    7.6556   -4.2848 C   0  0  0  1  0  0
   10.8674    3.7185  -11.3010 C   0  0  0  1  0  0
    7.2535    8.6803   -3.3026 C   0  0  0  1  0  0
   10.4095    4.5570  -12.5017 C   0  0  2  1  0  0
    7.2898   10.0892   -3.8501 C   0  0  0  1  0  0
   10.0711    3.6791  -13.7194 C   0  0  0  1  0  0
   11.5948    5.1851  -13.8013 H   0  0
   14.4231    3.5765   -7.1777 H   0  0
   12.8436    3.5097   -7.8567 H   0  0
   13.5254    4.5454   -5.0386 H   0  0
   12.9757    2.9421   -5.4278 H   0  0
   13.8025    6.2137   -6.8584 H   0  0
   14.5563    5.5858   -8.2910 H   0  0
   11.0286    4.3194   -6.6455 H   0  0
   10.8716    3.7223   -5.0219 H   0  0
   12.6904    7.0971   -8.7972 H   0  0
   11.5632    6.0295   -8.0319 H   0  0
   11.6622    5.9087   -4.1051 H   0  0
   11.8535    6.4632   -5.7744 H   0  0
    9.5630    6.4939   -6.1717 H   0  0
    9.1711    5.5389   -4.7451 H   0  0
   12.5039    5.9718  -10.7363 H   0  0
   13.1986    4.5548  -10.0121 H   0  0
    9.8434    7.8933   -3.5628 H   0  0
    9.5885    8.5270   -5.1697 H   0  0
   10.9027    3.9136   -9.1612 H   0  0
   10.2559    5.3092   -9.9969 H   0  0
    7.6497    6.6780   -3.8618 H   0  0
    7.3042    7.6808   -5.2337 H   0  0
   10.1071    2.9610  -11.1038 H   0  0
   11.7834    3.1757  -11.5342 H   0  0
    7.7986    8.6539   -2.3670 H   0  0
    6.2237    8.4287   -3.0518 H   0  0
    9.5161    5.1289  -12.2463 H   0  0
    6.5850   10.2142   -4.6673 H   0  0
    8.2892   10.2660   -4.2284 H   0  0
    7.0515   10.8216   -3.0792 H   0  0
  1 17  1  0
  2 19  1  0
  3 19  2  0
  4  5  1  0
  4  6  1  0
  5  7  1  0
  6  8  1  0
  7  9  1  0
  8 11  1  0
  9 10  1  0
 10 12  1  0
 11 13  1  0
 12 14  1  0
 13 15  1  0
 14 16  1  0
 15 17  1  0
 16 18  1  0
 17 19  1  0
  1 20  1  0
  4 21  1  0
  4 22  1  0
  5 23  1  0
  5 24  1  0
  6 25  1  0
  6 26  1  0
  7 27  1  0
  7 28  1  0
  8 29  1  0
  8 30  1  0
  9 31  1  0
  9 32  1  0
 10 33  1  0
 10 34  1  0
 11 35  1  0
 11 36  1  0
 12 37  1  0
 12 38  1  0
 13 39  1  0
 13 40  1  0
 14 41  1  0
 14 42  1  0
 15 43  1  0
 15 44  1  0
 16 45  1  0
 16 46  1  0
 17 47  1  0
 18 48  1  0
 18 49  1  0
 18 50  1  0
M  CHG  1   2  -1
M  END
> <Name>
92836

> <Binding Energy>
-36.6984

> <Ligand Energy>
-0.4677

> <Protein Energy>
-7801.1566

> <Complex Energy>
-7838.3227

> <Complex Entropy>
-31.4806

> <Protein Entropy>
-31.4717

> <Ligand Entropy>
-19.6349

> <Entropic Energy>
19.626

> <AbsoluteEnergy>
11.7464

> <ConfNumber>
76

> <Ionization pH>
7.5

> <IonizationIndex>
1

> <MOL_NUMBER>
723

> <NumberOfIonizations>
1

> <NumberOfStereoisomers>
2

> <NumberOfTautomers>
1

> <PUBCHEM_ATOM_DEF_STEREO_COUNT>
0

> <PUBCHEM_ATOM_UDEF_STEREO_COUNT>
1

> <PUBCHEM_BONDANNOTATIONS>
17  46  3

> <PUBCHEM_BOND_DEF_STEREO_COUNT>
0

> <PUBCHEM_BOND_UDEF_STEREO_COUNT>
0

> <PUBCHEM_CACTVS_COMPLEXITY>
204

> <PUBCHEM_CACTVS_HBOND_ACCEPTOR>
3

> <PUBCHEM_CACTVS_HBOND_DONOR>
2

> <PUBCHEM_CACTVS_ROTATABLE_BOND>
14

> <PUBCHEM_CACTVS_SUBSKEYS>
AAADcfB4MAAAAAAAAAAAAAAAAAAAAAAAAAAAAAAAAAAAAAAAAAAAGgAACAAACBSggAICCAAAAgAIAACQCAIAAAAAAAAAAAFAAAABEBIAAAAAQAAEAAABAAGIyKCAAAAAAAAAAAAAAAAAAAAAAAAAAAAAAA==

> <PUBCHEM_CACTVS_TAUTO_COUNT>
1

> <PUBCHEM_CACTVS_TPSA>
57.5

> <PUBCHEM_COMPONENT_COUNT>
1

> <PUBCHEM_COMPOUND_CANONICALIZED>
1

> <PUBCHEM_COMPOUND_CID>
92836

> <PUBCHEM_COORDINATE_TYPE>
1
5
255

> <PUBCHEM_EXACT_MASS>
272.23514488

> <PUBCHEM_HEAVY_ATOM_COUNT>
19

> <PUBCHEM_ISOTOPIC_ATOM_COUNT>
0

> <PUBCHEM_IUPAC_CAS_NAME>
2-hydroxyhexadecanoic acid

> <PUBCHEM_IUPAC_INCHI>
InChI=1S/C16H32O3/c1-2-3-4-5-6-7-8-9-10-11-12-13-14-15(17)16(18)19/h15,17H,2-14H2,1H3,(H,18,19)

> <PUBCHEM_IUPAC_INCHIKEY>
JGHSBPIZNUXPLA-UHFFFAOYSA-N

> <PUBCHEM_IUPAC_NAME>
2-hydroxyhexadecanoic acid

> <PUBCHEM_IUPAC_NAME_MARKUP>
2-hydroxyhexadecanoic acid

> <PUBCHEM_IUPAC_OPENEYE_NAME>
2-hydroxyhexadecanoic acid

> <PUBCHEM_IUPAC_SYSTEMATIC_NAME>
2-oxidanylhexadecanoic acid

> <PUBCHEM_IUPAC_TRADITIONAL_NAME>
2-hydroxypalmitic acid

> <PUBCHEM_MOLECULAR_FORMULA>
C16H32O3

> <PUBCHEM_MOLECULAR_WEIGHT>
272.42

> <PUBCHEM_MONOISOTOPIC_WEIGHT>
272.23514488

> <PUBCHEM_OPENEYE_CAN_SMILES>
CCCCCCCCCCCCCCC(C(=O)O)O

> <PUBCHEM_OPENEYE_ISO_SMILES>
CCCCCCCCCCCCCCC(C(=O)O)O

> <PUBCHEM_TOTAL_CHARGE>
0

> <PUBCHEM_XLOGP3_AA>
6.4

> <RelativeEnergy>
7.88605

> <StereoisomerIndex>
2

> <TautomerIndex>
1

> <POSE_NUMBER>
10

> <LibDockScore>
103.9299

> <HotSpots>
10.81,8.27,-8.46,A,35,7
7.21,9.27,-3.25,A,45,16
8.01,10.07,-2.25,A,50,18

> <-In-Situ Starting Energy>
-134638.768

> <-In-Situ Final Energy>
28.3565132

> <In-Situ Gradient>
0.000939576216

> <Favorable Total>
1

> <Unfavorable Total>
0

> <Charge Total>
0

> <Hydrophobic Total>
0

> <HydrogenBond Total>
1

> <Other Total>
0

> <Favorable A:LYS6>
0

> <Favorable A:ARG55>
0

> <Favorable A:LEU58>
0

> <Favorable A:LEU61>
0

> <Favorable A:ILE62>
0

> <Favorable A:GLY64>
0

> <Favorable A:SER65>
0

> <Favorable A:TRP66>
0

> <Favorable A:SER69>
0

> <Favorable A:VAL70>
0

> <Favorable A:PRO73>
0

> <Favorable A:ALA74>
0

> <Favorable A:PHE76>
0

> <Favorable A:ALA77>
0

> <Favorable A:THR78>
0

> <Favorable A:GLU79>
0

> <Favorable A:PHE82>
0

> <Favorable A:ARG83>
0

> <Favorable A:LEU85>
0

> <Favorable A:THR86>
1

> <Favorable A:TRP89>
0

> <Favorable A:THR90>
0

> <Favorable A:ASN93>
0

> <Favorable A:HIS94>
0

> <Favorable A:SER96>
0

> <Favorable A:VAL97>
0

> <Favorable A:TRP98>
0

> <Favorable A:PHE140>
0

> <Favorable A:LEU141>
0

> <Favorable A:ASN144>
0

> <Favorable A:ILE148>
0

> <Favorable A:ILE150>
0

> <Favorable A:HIS151>
0

> <Favorable A:ILE152>
0

> <Favorable A:ALA154>
0

> <Favorable A:SER155>
0

> <Favorable A:ILE156>
0

> <Favorable A:GLY158>
0

> <Favorable A:TYR159>
0

> <Favorable A:ARG160>
0

> <Favorable A:ARG161>
0

> <Favorable A:ASN162>
0

> <Favorable A:LYS163>
0

> <Favorable A:SER167>
0

> <Favorable A:ASP168>
0

> <Favorable A:SER169>
0

> <Favorable A:ASN171>
0

> <Favorable A:PHE172>
0

> <Favorable A:THR173>
0

> <Favorable A:ARG174>
0

> <Favorable A:PHE175>
0

> <Favorable A:SER176>
0

> <Favorable A:SER177>
0

> <Favorable A:LEU178>
0

> <Favorable A:ILE179>
0

> <Favorable A:VAL180>
0

> <Favorable A:LEU181>
0

> <Favorable A:SER183>
0

> <Favorable A:THR184>
0

> <Favorable A:PHE186>
0

> <Favorable A:ILE187>
0

> <Favorable A:PHE188>
0

> <Favorable A:ILE189>
0

> <Favorable A:PRO190>
0

> <Favorable A:PHE191>
0

> <Favorable A:TYR240>
0

> <Favorable A:PHE243>
0

> <Favorable A:SER244>
0

> <Favorable A:PHE247>
0

> <Favorable A:PHE248>
0

> <Favorable A:VAL251>
0

> <Favorable A:TRP252>
0

> <Favorable A:SER254>
0

> <Favorable A:GLU255>
0

> <Favorable A:ARG256>
0

> <Favorable A:LEU257>
0

> <Favorable A:GLU258>
0

> <Favorable A:GLU259>
0

> <Favorable A:LEU261>
0

> <Favorable A:ILE262>
0

> <Favorable A:ILE263>
0

> <Favorable A:SER265>
0

> <Favorable A:GLN266>
0

> <Favorable A:MET268>
0

> <Favorable A:GLY269>
0

> <Favorable A:TYR272>
0

> <Favorable A:PRO273>
0

> <Unfavorable A:ARG55>
0

> <Unfavorable A:PRO73>
0

> <Unfavorable A:PHE76>
0

> <Unfavorable A:GLU79>
0

> <Unfavorable A:ARG83>
0

> <Unfavorable A:THR86>
0

> <Unfavorable A:TRP89>
0

> <Unfavorable A:THR90>
0

> <Unfavorable A:ASN93>
0

> <Unfavorable A:TRP98>
0

> <Unfavorable A:ASN144>
0

> <Unfavorable A:SER155>
0

> <Unfavorable A:GLY158>
0

> <Unfavorable A:TYR159>
0

> <Unfavorable A:ASN162>
0

> <Unfavorable A:ASP168>
0

> <Unfavorable A:ASN171>
0

> <Unfavorable A:THR173>
0

> <Unfavorable A:ARG174>
0

> <Unfavorable A:SER183>
0

> <Unfavorable A:THR184>
0

> <Unfavorable A:PHE186>
0

> <Unfavorable A:SER244>
0

> <Unfavorable A:SER254>
0

> <Unfavorable A:GLU255>
0

> <Unfavorable A:SER265>
0

> <Unfavorable A:GLN266>
0

> <Unfavorable A:GLY269>
0

> <Charge A:ARG55>
0

> <Charge A:PHE76>
0

> <Charge A:GLU79>
0

> <Charge A:PHE82>
0

> <Charge A:ARG83>
0

> <Charge A:TRP89>
0

> <Charge A:HIS94>
0

> <Charge A:TRP98>
0

> <Charge A:TYR159>
0

> <Charge A:ARG161>
0

> <Charge A:LYS163>
0

> <Charge A:ASP168>
0

> <Charge A:PHE172>
0

> <Charge A:ARG174>
0

> <Charge A:PHE175>
0

> <Charge A:PHE188>
0

> <Charge A:PHE247>
0

> <Charge A:PHE248>
0

> <Hydrophobic A:LEU58>
0

> <Hydrophobic A:LEU61>
0

> <Hydrophobic A:ILE62>
0

> <Hydrophobic A:TRP66>
0

> <Hydrophobic A:VAL70>
0

> <Hydrophobic A:PRO73>
0

> <Hydrophobic A:ALA74>
0

> <Hydrophobic A:PHE76>
0

> <Hydrophobic A:ALA77>
0

> <Hydrophobic A:THR78>
0

> <Hydrophobic A:PHE82>
0

> <Hydrophobic A:ARG83>
0

> <Hydrophobic A:LEU85>
0

> <Hydrophobic A:TRP89>
0

> <Hydrophobic A:THR90>
0

> <Hydrophobic A:ASN93>
0

> <Hydrophobic A:HIS94>
0

> <Hydrophobic A:VAL97>
0

> <Hydrophobic A:TRP98>
0

> <Hydrophobic A:PHE140>
0

> <Hydrophobic A:LEU141>
0

> <Hydrophobic A:ILE148>
0

> <Hydrophobic A:ILE150>
0

> <Hydrophobic A:HIS151>
0

> <Hydrophobic A:ILE152>
0

> <Hydrophobic A:ALA154>
0

> <Hydrophobic A:SER155>
0

> <Hydrophobic A:ILE156>
0

> <Hydrophobic A:GLY158>
0

> <Hydrophobic A:TYR159>
0

> <Hydrophobic A:ARG160>
0

> <Hydrophobic A:ARG161>
0

> <Hydrophobic A:ASP168>
0

> <Hydrophobic A:ASN171>
0

> <Hydrophobic A:PHE172>
0

> <Hydrophobic A:ARG174>
0

> <Hydrophobic A:PHE175>
0

> <Hydrophobic A:LEU178>
0

> <Hydrophobic A:ILE179>
0

> <Hydrophobic A:VAL180>
0

> <Hydrophobic A:LEU181>
0

> <Hydrophobic A:PHE186>
0

> <Hydrophobic A:ILE187>
0

> <Hydrophobic A:PHE188>
0

> <Hydrophobic A:ILE189>
0

> <Hydrophobic A:PRO190>
0

> <Hydrophobic A:PHE191>
0

> <Hydrophobic A:TYR240>
0

> <Hydrophobic A:PHE243>
0

> <Hydrophobic A:PHE247>
0

> <Hydrophobic A:PHE248>
0

> <Hydrophobic A:VAL251>
0

> <Hydrophobic A:TRP252>
0

> <Hydrophobic A:SER254>
0

> <Hydrophobic A:LEU261>
0

> <Hydrophobic A:ILE262>
0

> <Hydrophobic A:ILE263>
0

> <Hydrophobic A:TYR272>
0

> <Hydrophobic A:PRO273>
0

> <HydrogenBond A:LYS6>
0

> <HydrogenBond A:ARG55>
0

> <HydrogenBond A:GLY64>
0

> <HydrogenBond A:SER65>
0

> <HydrogenBond A:TRP66>
0

> <HydrogenBond A:SER69>
0

> <HydrogenBond A:PRO73>
0

> <HydrogenBond A:ALA74>
0

> <HydrogenBond A:PHE76>
0

> <HydrogenBond A:ALA77>
0

> <HydrogenBond A:THR78>
0

> <HydrogenBond A:GLU79>
0

> <HydrogenBond A:PHE82>
0

> <HydrogenBond A:ARG83>
0

> <HydrogenBond A:LEU85>
0

> <HydrogenBond A:THR86>
1

> <HydrogenBond A:TRP89>
0

> <HydrogenBond A:THR90>
0

> <HydrogenBond A:ASN93>
0

> <HydrogenBond A:HIS94>
0

> <HydrogenBond A:SER96>
0

> <HydrogenBond A:TRP98>
0

> <HydrogenBond A:ASN144>
0

> <HydrogenBond A:HIS151>
0

> <HydrogenBond A:ILE152>
0

> <HydrogenBond A:ALA154>
0

> <HydrogenBond A:SER155>
0

> <HydrogenBond A:ILE156>
0

> <HydrogenBond A:GLY158>
0

> <HydrogenBond A:TYR159>
0

> <HydrogenBond A:ASN162>
0

> <HydrogenBond A:LYS163>
0

> <HydrogenBond A:SER167>
0

> <HydrogenBond A:ASP168>
0

> <HydrogenBond A:SER169>
0

> <HydrogenBond A:ASN171>
0

> <HydrogenBond A:PHE172>
0

> <HydrogenBond A:THR173>
0

> <HydrogenBond A:ARG174>
0

> <HydrogenBond A:PHE175>
0

> <HydrogenBond A:SER176>
0

> <HydrogenBond A:SER177>
0

> <HydrogenBond A:ILE179>
0

> <HydrogenBond A:VAL180>
0

> <HydrogenBond A:SER183>
0

> <HydrogenBond A:THR184>
0

> <HydrogenBond A:PHE186>
0

> <HydrogenBond A:ILE187>
0

> <HydrogenBond A:PRO190>
0

> <HydrogenBond A:TYR240>
0

> <HydrogenBond A:PHE243>
0

> <HydrogenBond A:SER244>
0

> <HydrogenBond A:PHE247>
0

> <HydrogenBond A:VAL251>
0

> <HydrogenBond A:SER254>
0

> <HydrogenBond A:GLU255>
0

> <HydrogenBond A:ARG256>
0

> <HydrogenBond A:LEU257>
0

> <HydrogenBond A:GLU258>
0

> <HydrogenBond A:GLU259>
0

> <HydrogenBond A:ILE262>
0

> <HydrogenBond A:SER265>
0

> <HydrogenBond A:GLN266>
0

> <HydrogenBond A:MET268>
0

> <HydrogenBond A:GLY269>
0

> <HydrogenBond A:PRO273>
0

> <Other A:SER69>
0

> <Other A:TRP89>
0

> <Other A:TYR159>
0

> <Other A:PHE172>
0

> <Other A:SER176>
0

> <Other A:SER265>
0

$$$$
101799
  SciTegic09122300493D

 36 37  0  0  0  0            999 V2000
    7.9568    0.7307   -0.7569 O   0  0  0  1  0  0
    6.6182    1.3521    1.0685 O   0  0  0  1  0  0
    4.3130    1.4330   -0.7822 O   0  0  0  1  0  0
    6.7227   -0.1074   -3.1778 O   0  0  0  1  0  0
    6.2822   -1.6911   -0.5244 O   0  0  0  1  0  0
    7.2154    4.0721   -2.0162 O   0  0  0  1  0  0
    4.5650    2.4915    2.1383 O   0  0  0  1  0  0
    5.1389    0.4195   -1.3602 C   0  0  1  1  0  0
    6.1870    0.9433   -2.3932 C   0  0  1  1  0  0
    5.8611   -0.3813   -0.2298 C   0  0  2  1  0  0
    7.4102    1.6133   -1.7161 C   0  0  1  1  0  0
    7.1177    0.2996    0.2964 C   0  0  1  1  0  0
    7.2298    3.0134   -1.0876 C   0  0  0  1  0  0
    7.4584    2.0618    1.9009 C   0  0  0  1  0  0
    6.8618    3.0368    2.6665 C   0  0  0  1  0  0
    8.8249    1.9055    1.9704 C   0  0  0  1  0  0
    7.5999    3.8366    3.5230 C   0  0  0  1  0  0
    9.5831    2.6962    2.8210 C   0  0  0  1  0  0
    8.9596    3.6514    3.6029 C   0  0  0  1  0  0
    5.4390    3.2382    2.5814 C   0  0  0  1  0  0
    4.2431    2.1768   -1.3796 H   0  0
    6.0318   -0.7106   -3.4507 H   0  0
    5.6870   -2.0939   -1.1456 H   0  0
    6.3889    4.0498   -2.4873 H   0  0
    4.4093   -0.2253   -1.8559 H   0  0
    5.7462    1.6312   -3.1106 H   0  0
    5.2170   -0.4400    0.6353 H   0  0
    8.1709    1.7364   -2.4872 H   0  0
    7.6622   -0.3967    0.9374 H   0  0
    6.3669    3.0903   -0.4205 H   0  0
    8.1033    3.2028   -0.4646 H   0  0
    9.2708    1.1439    1.3718 H   0  0
    7.1385    4.5995    4.1383 H   0  0
   10.6490    2.5498    2.9074 H   0  0
    9.5202    4.2841    4.2647 H   0  0
    5.1982    4.1963    3.0107 H   0  0
  1 11  1  0
  1 12  1  0
  2 12  1  0
  2 14  1  0
  3  8  1  0
  4  9  1  0
  5 10  1  0
  6 13  1  0
  7 20  2  0
  8  9  1  0
  8 10  1  0
  9 11  1  0
 10 12  1  0
 11 13  1  0
 14 15  2  0
 14 16  1  0
 15 17  1  0
 15 20  1  0
 16 18  2  0
 17 19  2  0
 18 19  1  0
  3 21  1  0
  4 22  1  0
  5 23  1  0
  6 24  1  0
  8 25  1  0
  9 26  1  0
 10 27  1  0
 11 28  1  0
 12 29  1  0
 13 30  1  0
 13 31  1  0
 16 32  1  0
 17 33  1  0
 18 34  1  0
 19 35  1  0
 20 36  1  0
M  END
> <Name>
101799

> <Binding Energy>
-82.8179

> <Ligand Energy>
78.4988

> <Protein Energy>
-7801.1566

> <Complex Energy>
-7805.4758

> <Complex Entropy>
-31.4792

> <Protein Entropy>
-31.4717

> <Ligand Entropy>
-19.0165

> <Entropic Energy>
19.009

> <AbsoluteEnergy>
33.826

> <ConfNumber>
24

> <IonizationIndex>
1

> <MOL_NUMBER>
724

> <NumberOfIonizations>
1

> <NumberOfStereoisomers>
1

> <NumberOfTautomers>
1

> <PUBCHEM_ATOM_DEF_STEREO_COUNT>
5

> <PUBCHEM_ATOM_UDEF_STEREO_COUNT>
0

> <PUBCHEM_BONDANNOTATIONS>
11  13  5
14  15  8
14  16  8
15  17  8
16  18  8
17  19  8
18  19  8
12  2  5
8  3  5
9  4  6
10  5  6

> <PUBCHEM_BOND_DEF_STEREO_COUNT>
0

> <PUBCHEM_BOND_UDEF_STEREO_COUNT>
0

> <PUBCHEM_CACTVS_COMPLEXITY>
324

> <PUBCHEM_CACTVS_HBOND_ACCEPTOR>
7

> <PUBCHEM_CACTVS_HBOND_DONOR>
4

> <PUBCHEM_CACTVS_ROTATABLE_BOND>
4

> <PUBCHEM_CACTVS_SUBSKEYS>
AAADceBwOAAAAAAAAAAAAAAAAAAAAAAAAAA0QAAAAAAAAAABAAAAGgAACAAADBSwmAMwDoAABgCIAihSgAACCAAkIAAIiAEGCMgdNjaENRqieWCl4BEPqYfI6CyOAAAAAAAIAAAAAAAAABAAAAAAAAAAAA==

> <PUBCHEM_CACTVS_TAUTO_COUNT>
1

> <PUBCHEM_CACTVS_TPSA>
116

> <PUBCHEM_COMPONENT_COUNT>
1

> <PUBCHEM_COMPOUND_CANONICALIZED>
1

> <PUBCHEM_COMPOUND_CID>
101799

> <PUBCHEM_COORDINATE_TYPE>
1
5
255

> <PUBCHEM_EXACT_MASS>
284.08960285

> <PUBCHEM_HEAVY_ATOM_COUNT>
20

> <PUBCHEM_ISOTOPIC_ATOM_COUNT>
0

> <PUBCHEM_IUPAC_CAS_NAME>
2-[[(2S,3R,4S,5S,6R)-3,4,5-trihydroxy-6-(hydroxymethyl)-2-oxanyl]oxy]benzaldehyde

> <PUBCHEM_IUPAC_INCHI>
InChI=1S/C13H16O7/c14-5-7-3-1-2-4-8(7)19-13-12(18)11(17)10(16)9(6-15)20-13/h1-5,9-13,15-18H,6H2/t9-,10-,11+,12-,13-/m1/s1

> <PUBCHEM_IUPAC_INCHIKEY>
BGOFCVIGEYGEOF-UJPOAAIJSA-N

> <PUBCHEM_IUPAC_NAME>
2-[(2S,3R,4S,5S,6R)-3,4,5-trihydroxy-6-(hydroxymethyl)oxan-2-yl]oxybenzaldehyde

> <PUBCHEM_IUPAC_NAME_MARKUP>
2-[(2<I>S</I>,3<I>R</I>,4<I>S</I>,5<I>S</I>,6<I>R</I>)-3,4,5-trihydroxy-6-(hydroxymethyl)oxan-2-yl]oxybenzaldehyde

> <PUBCHEM_IUPAC_OPENEYE_NAME>
2-[(2S,3R,4S,5S,6R)-3,4,5-trihydroxy-6-(hydroxymethyl)tetrahydropyran-2-yl]oxybenzaldehyde

> <PUBCHEM_IUPAC_SYSTEMATIC_NAME>
2-[(2S,3R,4S,5S,6R)-6-(hydroxymethyl)-3,4,5-tris(oxidanyl)oxan-2-yl]oxybenzaldehyde

> <PUBCHEM_IUPAC_TRADITIONAL_NAME>
2-[(2S,3R,4S,5S,6R)-3,4,5-trihydroxy-6-methylol-tetrahydropyran-2-yl]oxybenzaldehyde

> <PUBCHEM_MOLECULAR_FORMULA>
C13H16O7

> <PUBCHEM_MOLECULAR_WEIGHT>
284.26

> <PUBCHEM_MONOISOTOPIC_WEIGHT>
284.08960285

> <PUBCHEM_OPENEYE_CAN_SMILES>
C1=CC=C(C(=C1)C=O)OC2C(C(C(C(O2)CO)O)O)O

> <PUBCHEM_OPENEYE_ISO_SMILES>
C1=CC=C(C(=C1)C=O)O[C@H]2[C@@H]([C@H]([C@@H]([C@H](O2)CO)O)O)O

> <PUBCHEM_TOTAL_CHARGE>
0

> <PUBCHEM_XLOGP3>
-1.5

> <RelativeEnergy>
4.47934

> <StereoisomerIndex>
1

> <TautomerIndex>
1

> <POSE_NUMBER>
1

> <LibDockScore>
96.8788

> <HotSpots>
7.61,2.87,-1.05,A,58,13
9.21,2.67,2.54,A,84,16
7.81,4.27,4.14,A,90,17

> <-In-Situ Starting Energy>
-339.180098

> <-In-Situ Final Energy>
-3.80540483

> <In-Situ Gradient>
0.000915149783

> <Favorable Total>
9

> <Unfavorable Total>
0

> <Charge Total>
0

> <Hydrophobic Total>
1

> <HydrogenBond Total>
8

> <Other Total>
0

> <Favorable A:LYS6>
0

> <Favorable A:ARG55>
1

> <Favorable A:LEU58>
0

> <Favorable A:LEU61>
0

> <Favorable A:ILE62>
0

> <Favorable A:GLY64>
0

> <Favorable A:SER65>
0

> <Favorable A:TRP66>
0

> <Favorable A:SER69>
0

> <Favorable A:VAL70>
0

> <Favorable A:PRO73>
0

> <Favorable A:ALA74>
0

> <Favorable A:PHE76>
0

> <Favorable A:ALA77>
0

> <Favorable A:THR78>
0

> <Favorable A:GLU79>
0

> <Favorable A:PHE82>
0

> <Favorable A:ARG83>
0

> <Favorable A:LEU85>
0

> <Favorable A:THR86>
0

> <Favorable A:TRP89>
0

> <Favorable A:THR90>
0

> <Favorable A:ASN93>
2

> <Favorable A:HIS94>
0

> <Favorable A:SER96>
0

> <Favorable A:VAL97>
0

> <Favorable A:TRP98>
0

> <Favorable A:PHE140>
0

> <Favorable A:LEU141>
0

> <Favorable A:ASN144>
0

> <Favorable A:ILE148>
0

> <Favorable A:ILE150>
0

> <Favorable A:HIS151>
0

> <Favorable A:ILE152>
0

> <Favorable A:ALA154>
0

> <Favorable A:SER155>
0

> <Favorable A:ILE156>
0

> <Favorable A:GLY158>
0

> <Favorable A:TYR159>
0

> <Favorable A:ARG160>
0

> <Favorable A:ARG161>
0

> <Favorable A:ASN162>
0

> <Favorable A:LYS163>
0

> <Favorable A:SER167>
0

> <Favorable A:ASP168>
0

> <Favorable A:SER169>
0

> <Favorable A:ASN171>
0

> <Favorable A:PHE172>
0

> <Favorable A:THR173>
0

> <Favorable A:ARG174>
0

> <Favorable A:PHE175>
0

> <Favorable A:SER176>
0

> <Favorable A:SER177>
0

> <Favorable A:LEU178>
0

> <Favorable A:ILE179>
0

> <Favorable A:VAL180>
0

> <Favorable A:LEU181>
0

> <Favorable A:SER183>
0

> <Favorable A:THR184>
0

> <Favorable A:PHE186>
0

> <Favorable A:ILE187>
1

> <Favorable A:PHE188>
0

> <Favorable A:ILE189>
0

> <Favorable A:PRO190>
0

> <Favorable A:PHE191>
0

> <Favorable A:TYR240>
1

> <Favorable A:PHE243>
0

> <Favorable A:SER244>
1

> <Favorable A:PHE247>
0

> <Favorable A:PHE248>
0

> <Favorable A:VAL251>
0

> <Favorable A:TRP252>
0

> <Favorable A:SER254>
0

> <Favorable A:GLU255>
0

> <Favorable A:ARG256>
0

> <Favorable A:LEU257>
0

> <Favorable A:GLU258>
0

> <Favorable A:GLU259>
0

> <Favorable A:LEU261>
0

> <Favorable A:ILE262>
0

> <Favorable A:ILE263>
0

> <Favorable A:SER265>
0

> <Favorable A:GLN266>
0

> <Favorable A:MET268>
0

> <Favorable A:GLY269>
3

> <Favorable A:TYR272>
0

> <Favorable A:PRO273>
0

> <Unfavorable A:ARG55>
0

> <Unfavorable A:PRO73>
0

> <Unfavorable A:PHE76>
0

> <Unfavorable A:GLU79>
0

> <Unfavorable A:ARG83>
0

> <Unfavorable A:THR86>
0

> <Unfavorable A:TRP89>
0

> <Unfavorable A:THR90>
0

> <Unfavorable A:ASN93>
0

> <Unfavorable A:TRP98>
0

> <Unfavorable A:ASN144>
0

> <Unfavorable A:SER155>
0

> <Unfavorable A:GLY158>
0

> <Unfavorable A:TYR159>
0

> <Unfavorable A:ASN162>
0

> <Unfavorable A:ASP168>
0

> <Unfavorable A:ASN171>
0

> <Unfavorable A:THR173>
0

> <Unfavorable A:ARG174>
0

> <Unfavorable A:SER183>
0

> <Unfavorable A:THR184>
0

> <Unfavorable A:PHE186>
0

> <Unfavorable A:SER244>
0

> <Unfavorable A:SER254>
0

> <Unfavorable A:GLU255>
0

> <Unfavorable A:SER265>
0

> <Unfavorable A:GLN266>
0

> <Unfavorable A:GLY269>
0

> <Charge A:ARG55>
0

> <Charge A:PHE76>
0

> <Charge A:GLU79>
0

> <Charge A:PHE82>
0

> <Charge A:ARG83>
0

> <Charge A:TRP89>
0

> <Charge A:HIS94>
0

> <Charge A:TRP98>
0

> <Charge A:TYR159>
0

> <Charge A:ARG161>
0

> <Charge A:LYS163>
0

> <Charge A:ASP168>
0

> <Charge A:PHE172>
0

> <Charge A:ARG174>
0

> <Charge A:PHE175>
0

> <Charge A:PHE188>
0

> <Charge A:PHE247>
0

> <Charge A:PHE248>
0

> <Hydrophobic A:LEU58>
0

> <Hydrophobic A:LEU61>
0

> <Hydrophobic A:ILE62>
0

> <Hydrophobic A:TRP66>
0

> <Hydrophobic A:VAL70>
0

> <Hydrophobic A:PRO73>
0

> <Hydrophobic A:ALA74>
0

> <Hydrophobic A:PHE76>
0

> <Hydrophobic A:ALA77>
0

> <Hydrophobic A:THR78>
0

> <Hydrophobic A:PHE82>
0

> <Hydrophobic A:ARG83>
0

> <Hydrophobic A:LEU85>
0

> <Hydrophobic A:TRP89>
0

> <Hydrophobic A:THR90>
0

> <Hydrophobic A:ASN93>
0

> <Hydrophobic A:HIS94>
0

> <Hydrophobic A:VAL97>
0

> <Hydrophobic A:TRP98>
0

> <Hydrophobic A:PHE140>
0

> <Hydrophobic A:LEU141>
0

> <Hydrophobic A:ILE148>
0

> <Hydrophobic A:ILE150>
0

> <Hydrophobic A:HIS151>
0

> <Hydrophobic A:ILE152>
0

> <Hydrophobic A:ALA154>
0

> <Hydrophobic A:SER155>
0

> <Hydrophobic A:ILE156>
0

> <Hydrophobic A:GLY158>
0

> <Hydrophobic A:TYR159>
0

> <Hydrophobic A:ARG160>
0

> <Hydrophobic A:ARG161>
0

> <Hydrophobic A:ASP168>
0

> <Hydrophobic A:ASN171>
0

> <Hydrophobic A:PHE172>
0

> <Hydrophobic A:ARG174>
0

> <Hydrophobic A:PHE175>
0

> <Hydrophobic A:LEU178>
0

> <Hydrophobic A:ILE179>
0

> <Hydrophobic A:VAL180>
0

> <Hydrophobic A:LEU181>
0

> <Hydrophobic A:PHE186>
0

> <Hydrophobic A:ILE187>
1

> <Hydrophobic A:PHE188>
0

> <Hydrophobic A:ILE189>
0

> <Hydrophobic A:PRO190>
0

> <Hydrophobic A:PHE191>
0

> <Hydrophobic A:TYR240>
0

> <Hydrophobic A:PHE243>
0

> <Hydrophobic A:PHE247>
0

> <Hydrophobic A:PHE248>
0

> <Hydrophobic A:VAL251>
0

> <Hydrophobic A:TRP252>
0

> <Hydrophobic A:SER254>
0

> <Hydrophobic A:LEU261>
0

> <Hydrophobic A:ILE262>
0

> <Hydrophobic A:ILE263>
0

> <Hydrophobic A:TYR272>
0

> <Hydrophobic A:PRO273>
0

> <HydrogenBond A:LYS6>
0

> <HydrogenBond A:ARG55>
1

> <HydrogenBond A:GLY64>
0

> <HydrogenBond A:SER65>
0

> <HydrogenBond A:TRP66>
0

> <HydrogenBond A:SER69>
0

> <HydrogenBond A:PRO73>
0

> <HydrogenBond A:ALA74>
0

> <HydrogenBond A:PHE76>
0

> <HydrogenBond A:ALA77>
0

> <HydrogenBond A:THR78>
0

> <HydrogenBond A:GLU79>
0

> <HydrogenBond A:PHE82>
0

> <HydrogenBond A:ARG83>
0

> <HydrogenBond A:LEU85>
0

> <HydrogenBond A:THR86>
0

> <HydrogenBond A:TRP89>
0

> <HydrogenBond A:THR90>
0

> <HydrogenBond A:ASN93>
2

> <HydrogenBond A:HIS94>
0

> <HydrogenBond A:SER96>
0

> <HydrogenBond A:TRP98>
0

> <HydrogenBond A:ASN144>
0

> <HydrogenBond A:HIS151>
0

> <HydrogenBond A:ILE152>
0

> <HydrogenBond A:ALA154>
0

> <HydrogenBond A:SER155>
0

> <HydrogenBond A:ILE156>
0

> <HydrogenBond A:GLY158>
0

> <HydrogenBond A:TYR159>
0

> <HydrogenBond A:ASN162>
0

> <HydrogenBond A:LYS163>
0

> <HydrogenBond A:SER167>
0

> <HydrogenBond A:ASP168>
0

> <HydrogenBond A:SER169>
0

> <HydrogenBond A:ASN171>
0

> <HydrogenBond A:PHE172>
0

> <HydrogenBond A:THR173>
0

> <HydrogenBond A:ARG174>
0

> <HydrogenBond A:PHE175>
0

> <HydrogenBond A:SER176>
0

> <HydrogenBond A:SER177>
0

> <HydrogenBond A:ILE179>
0

> <HydrogenBond A:VAL180>
0

> <HydrogenBond A:SER183>
0

> <HydrogenBond A:THR184>
0

> <HydrogenBond A:PHE186>
0

> <HydrogenBond A:ILE187>
0

> <HydrogenBond A:PRO190>
0

> <HydrogenBond A:TYR240>
1

> <HydrogenBond A:PHE243>
0

> <HydrogenBond A:SER244>
1

> <HydrogenBond A:PHE247>
0

> <HydrogenBond A:VAL251>
0

> <HydrogenBond A:SER254>
0

> <HydrogenBond A:GLU255>
0

> <HydrogenBond A:ARG256>
0

> <HydrogenBond A:LEU257>
0

> <HydrogenBond A:GLU258>
0

> <HydrogenBond A:GLU259>
0

> <HydrogenBond A:ILE262>
0

> <HydrogenBond A:SER265>
0

> <HydrogenBond A:GLN266>
0

> <HydrogenBond A:MET268>
0

> <HydrogenBond A:GLY269>
3

> <HydrogenBond A:PRO273>
0

> <Other A:SER69>
0

> <Other A:TRP89>
0

> <Other A:TYR159>
0

> <Other A:PHE172>
0

> <Other A:SER176>
0

> <Other A:SER265>
0

$$$$
114627
  SciTegic09122300493D

 74 78  0  0  0  0            999 V2000
   13.6602    2.5117   -9.2373 O   0  0  0  1  0  0
   13.0852    4.6808   -6.3664 O   0  0  0  1  0  0
   15.1735    3.8304  -10.3645 O   0  0  0  1  0  0
   12.7832    5.2068   -8.5822 O   0  0  0  1  0  0
   14.2287    0.7680   -7.1405 O   0  0  0  1  0  0
   13.0513    1.4379   -4.6927 O   0  0  0  1  0  0
   14.4455    0.2215  -10.7364 O   0  0  0  1  0  0
   16.8750    0.5175  -11.3598 O   0  0  0  1  0  0
   17.5048    3.0419  -13.1286 O   0  0  0  1  0  0
   12.5145    5.7027   -3.7563 O   0  0  0  1  0  0
    9.4384    3.0231  -11.2516 O   0  0  0  1  0  0
   12.8768    5.6081  -13.2034 O   0  0  0  1  0  0
   10.8780    4.8949  -14.7334 O   0  0  0  1  0  0
   11.8193   -1.2760  -10.4237 O   0  0  0  1  0  0
   13.4219   -1.4557  -12.4718 O   0  0  0  1  0  0
   13.7478    3.0553   -7.9369 C   0  0  2  1  0  0
   13.4598    1.9394   -6.9505 C   0  0  2  1  0  0
   13.6047    2.4505   -5.5099 C   0  0  1  1  0  0
   14.8790    2.5099   -9.9505 C   0  0  2  1  0  0
   12.7339    4.1677   -7.6298 C   0  0  1  1  0  0
   14.7279    1.5570  -11.1322 C   0  0  1  1  0  0
   12.8515    3.7864   -5.2946 C   0  0  1  1  0  0
   16.0274    1.4918  -11.9422 C   0  0  1  1  0  0
   16.7577    2.8569  -11.9411 C   0  0  2  1  0  0
   15.7817    4.0176  -11.6318 C   0  0  2  1  0  0
   13.2761    4.5340   -4.0139 C   0  0  0  1  0  0
   16.4560    5.3903  -11.5811 C   0  0  0  1  0  0
   12.2288    4.9537   -9.8011 C   0  0  0  1  0  0
   11.0362    4.0913   -9.9716 C   0  0  0  1  0  0
   12.8207    5.5020  -10.8782 C   0  0  0  1  0  0
   10.5065    3.8301  -11.1748 C   0  0  0  1  0  0
   11.0747    4.4305  -12.3831 C   0  0  0  1  0  0
    9.2532    2.3610  -12.4815 C   0  0  1  1  0  0
   12.3244    5.1955  -12.2332 C   0  0  0  1  0  0
    9.2617    3.3770  -13.6341 C   0  0  0  1  0  0
   10.4386    4.3195  -13.5676 C   0  0  0  1  0  0
   10.3302    1.3047  -12.5660 C   0  0  0  1  0  0
   10.5143    0.4626  -11.4760 C   0  0  0  1  0  0
   11.2041    1.1982  -13.6496 C   0  0  0  1  0  0
   11.5539   -0.4441  -11.4835 C   0  0  0  1  0  0
   12.2104    0.2454  -13.6765 C   0  0  0  1  0  0
   12.3763   -0.5722  -12.5786 C   0  0  0  1  0  0
   15.1567    0.9655   -7.0740 H   0  0
   13.3808    0.5840   -4.9819 H   0  0
   13.8097    0.2606  -10.0148 H   0  0
   16.3277   -0.2087  -11.0643 H   0  0
   16.9218    3.2118  -13.8543 H   0  0
   11.5929    5.5177   -3.8839 H   0  0
   11.6823    5.3991  -14.6020 H   0  0
   12.5955   -1.7672  -10.6854 H   0  0
   14.1479   -0.9537  -12.1054 H   0  0
   14.7425    3.4544   -7.7642 H   0  0
   12.4225    1.6363   -7.1131 H   0  0
   14.6569    2.6103   -5.2543 H   0  0
   15.6940    2.1488   -9.3206 H   0  0
   11.7240    3.7776   -7.5405 H   0  0
   13.9198    1.9201  -11.7742 H   0  0
   11.7870    3.5489   -5.2689 H   0  0
   15.7924    1.1770  -12.9632 H   0  0
   17.4881    2.8425  -11.1308 H   0  0
   15.0001    4.0394  -12.3922 H   0  0
   13.2399    3.8871   -3.1392 H   0  0
   14.3151    4.8495   -4.1064 H   0  0
   16.9966    5.5203  -10.6474 H   0  0
   15.7193    6.1903  -11.6172 H   0  0
   17.1595    5.5301  -12.4018 H   0  0
   10.5615    3.6443   -9.1267 H   0  0
   13.6643    6.1535  -10.7591 H   0  0
    8.2913    1.8478  -12.4611 H   0  0
    8.3486    3.9674  -13.5612 H   0  0
    9.2248    2.8662  -14.5957 H   0  0
    9.8751    0.5343  -10.6082 H   0  0
   11.1405    1.8791  -14.4742 H   0  0
   12.8755    0.1636  -14.5245 H   0  0
  1 16  1  0
  1 19  1  0
  2 20  1  0
  2 22  1  0
  3 19  1  0
  3 25  1  0
  4 20  1  0
  4 28  1  0
  5 17  1  0
  6 18  1  0
  7 21  1  0
  8 23  1  0
  9 24  1  0
 10 26  1  0
 11 31  1  0
 11 33  1  0
 12 34  2  0
 13 36  1  0
 14 40  1  0
 15 42  1  0
 16 17  1  0
 16 20  1  0
 17 18  1  0
 18 22  1  0
 19 21  1  0
 21 23  1  0
 22 26  1  0
 23 24  1  0
 24 25  1  0
 25 27  1  0
 28 29  1  0
 28 30  2  0
 29 31  2  0
 30 34  1  0
 31 32  1  0
 32 34  1  0
 32 36  2  0
 33 35  1  0
 33 37  1  0
 35 36  1  0
 37 38  2  0
 37 39  1  0
 38 40  1  0
 39 41  2  0
 40 42  2  0
 41 42  1  0
  5 43  1  0
  6 44  1  0
  7 45  1  0
  8 46  1  0
  9 47  1  0
 10 48  1  0
 13 49  1  0
 14 50  1  0
 15 51  1  0
 16 52  1  0
 17 53  1  0
 18 54  1  0
 19 55  1  0
 20 56  1  0
 21 57  1  0
 22 58  1  0
 23 59  1  0
 24 60  1  0
 25 61  1  0
 26 62  1  0
 26 63  1  0
 27 64  1  0
 27 65  1  0
 27 66  1  0
 29 67  1  0
 30 68  1  0
 33 69  1  0
 35 70  1  0
 35 71  1  0
 38 72  1  0
 39 73  1  0
 41 74  1  0
M  END
> <Name>
114627

> <Binding Energy>
-80.4554

> <Ligand Energy>
75.4066

> <Protein Energy>
-7801.1566

> <Complex Energy>
-7806.2055

> <Complex Entropy>
-31.4926

> <Protein Entropy>
-31.4717

> <Ligand Entropy>
-20.9728

> <Entropic Energy>
20.9519

> <AbsoluteEnergy>
68.5621

> <ConfNumber>
70

> <Ionization pH>
7.5

> <IonizationIndex>
1

> <MOL_NUMBER>
728

> <NumberOfIonizations>
1

> <NumberOfStereoisomers>
1

> <NumberOfTautomers>
2

> <PUBCHEM_ATOM_DEF_STEREO_COUNT>
11

> <PUBCHEM_ATOM_UDEF_STEREO_COUNT>
0

> <PUBCHEM_BONDANNOTATIONS>
16  1  6
19  1  6
22  26  5
25  27  5
28  29  8
28  30  8
29  31  8
30  34  8
31  32  8
32  34  8
33  37  5
37  38  8
37  39  8
38  40  8
39  41  8
20  4  5
40  42  8
41  42  8
17  5  5
18  6  6
21  7  5
23  8  5
24  9  6

> <PUBCHEM_BOND_DEF_STEREO_COUNT>
0

> <PUBCHEM_BOND_UDEF_STEREO_COUNT>
0

> <PUBCHEM_CACTVS_COMPLEXITY>
924

> <PUBCHEM_CACTVS_HBOND_ACCEPTOR>
15

> <PUBCHEM_CACTVS_HBOND_DONOR>
9

> <PUBCHEM_CACTVS_ROTATABLE_BOND>
6

> <PUBCHEM_CACTVS_SUBSKEYS>
AAADcfB4PAAAAAAAAAAAAAAAAAAAAAAAAAA0aJECAAAAAACRQAAAGgAACAAADBSwmAMyDoAABgCIAqBSAAACCAAkIAAIiAEGiMgdNzaGNRqieWGl4BUPuQfI7PzOIAABCAAIQABAAAIQABCAAAAAAAAAAA==

> <PUBCHEM_CACTVS_TAUTO_COUNT>
90

> <PUBCHEM_CACTVS_TPSA>
245

> <PUBCHEM_COMPONENT_COUNT>
1

> <PUBCHEM_COMPOUND_CANONICALIZED>
1

> <PUBCHEM_COMPOUND_CID>
114627

> <PUBCHEM_COORDINATE_TYPE>
1
5
255

> <PUBCHEM_EXACT_MASS>
596.17412031

> <PUBCHEM_HEAVY_ATOM_COUNT>
42

> <PUBCHEM_ISOTOPIC_ATOM_COUNT>
0

> <PUBCHEM_IUPAC_CAS_NAME>
(2S)-7-[[(2S,3R,4S,5S,6R)-4,5-dihydroxy-6-(hydroxymethyl)-3-[[(2S,3R,4R,5R,6S)-3,4,5-trihydroxy-6-methyl-2-oxanyl]oxy]-2-oxanyl]oxy]-2-(3,4-dihydroxyphenyl)-5-hydroxy-3,4-dihydro-2H-1-benzopyran-4-one

> <PUBCHEM_IUPAC_INCHI>
InChI=1S/C27H32O15/c1-9-20(33)22(35)24(37)26(38-9)42-25-23(36)21(34)18(8-28)41-27(25)39-11-5-14(31)19-15(32)7-16(40-17(19)6-11)10-2-3-12(29)13(30)4-10/h2-6,9,16,18,20-31,33-37H,7-8H2,1H3/t9-,16-,18+,2
0-,21+,22+,23-,24+,25+,26-,27+/m0/s1

> <PUBCHEM_IUPAC_INCHIKEY>
OBKKEZLIABHSGY-DOYQYKRZSA-N

> <PUBCHEM_IUPAC_NAME>
(2S)-7-[(2S,3R,4S,5S,6R)-4,5-dihydroxy-6-(hydroxymethyl)-3-[(2S,3R,4R,5R,6S)-3,4,5-trihydroxy-6-methyloxan-2-yl]oxyoxan-2-yl]oxy-2-(3,4-dihydroxyphenyl)-5-hydroxy-2,3-dihydrochromen-4-one

> <PUBCHEM_IUPAC_NAME_MARKUP>
(2<I>S</I>)-7-[(2<I>S</I>,3<I>R</I>,4<I>S</I>,5<I>S</I>,6<I>R</I>)-4,5-dihydroxy-6-(hydroxymethyl)-3-[(2<I>S</I>,3<I>R</I>,4<I>R</I>,5<I>R</I>,6<I>S</I>)-3,4,5-trihydroxy-6-methyloxan-2-yl]oxyoxan-2-y
l]oxy-2-(3,4-dihydroxyphenyl)-5-hydroxy-2,3-dihydrochromen-4-one

> <PUBCHEM_IUPAC_OPENEYE_NAME>
(2S)-7-[(2S,3R,4S,5S,6R)-4,5-dihydroxy-6-(hydroxymethyl)-3-[(2S,3R,4R,5R,6S)-3,4,5-trihydroxy-6-methyl-tetrahydropyran-2-yl]oxy-tetrahydropyran-2-yl]oxy-2-(3,4-dihydroxyphenyl)-5-hydroxy-chroman-4-one

> <PUBCHEM_IUPAC_SYSTEMATIC_NAME>
(2S)-2-[3,4-bis(oxidanyl)phenyl]-7-[(2S,3R,4S,5S,6R)-6-(hydroxymethyl)-3-[(2S,3R,4R,5R,6S)-6-methyl-3,4,5-tris(oxidanyl)oxan-2-yl]oxy-4,5-bis(oxidanyl)oxan-2-yl]oxy-5-oxidanyl-2,3-dihydrochromen-4-one

> <PUBCHEM_IUPAC_TRADITIONAL_NAME>
(2S)-7-[(2S,3R,4S,5S,6R)-4,5-dihydroxy-6-methylol-3-[(2S,3R,4R,5R,6S)-3,4,5-trihydroxy-6-methyl-tetrahydropyran-2-yl]oxy-tetrahydropyran-2-yl]oxy-2-(3,4-dihydroxyphenyl)-5-hydroxy-chroman-4-one

> <PUBCHEM_MOLECULAR_FORMULA>
C27H32O15

> <PUBCHEM_MOLECULAR_WEIGHT>
596.5

> <PUBCHEM_MONOISOTOPIC_WEIGHT>
596.17412031

> <PUBCHEM_OPENEYE_CAN_SMILES>
CC1C(C(C(C(O1)OC2C(C(C(OC2OC3=CC(=C4C(=O)CC(OC4=C3)C5=CC(=C(C=C5)O)O)O)CO)O)O)O)O)O

> <PUBCHEM_OPENEYE_ISO_SMILES>
C[C@H]1[C@@H]([C@H]([C@H]([C@@H](O1)O[C@@H]2[C@H]([C@@H]([C@H](O[C@H]2OC3=CC(=C4C(=O)C[C@H](OC4=C3)C5=CC(=C(C=C5)O)O)O)CO)O)O)O)O)O

> <PUBCHEM_TOTAL_CHARGE>
0

> <PUBCHEM_XLOGP3_AA>
-0.9

> <RelativeEnergy>
15.4533

> <StereoisomerIndex>
1

> <TautomerIndex>
2

> <POSE_NUMBER>
1

> <LibDockScore>
117.0034

> <HotSpots>
13.41,5.07,-3.25,A,44,26
16.61,6.47,-11.46,A,30,27
9.21,3.67,-12.86,A,26,35

> <-In-Situ Starting Energy>
-959.828543

> <-In-Situ Final Energy>
-14.3583326

> <In-Situ Gradient>
0.0009941274517

> <Favorable Total>
5

> <Unfavorable Total>
0

> <Charge Total>
0

> <Hydrophobic Total>
3

> <HydrogenBond Total>
2

> <Other Total>
0

> <Favorable A:LYS6>
0

> <Favorable A:ARG55>
0

> <Favorable A:LEU58>
0

> <Favorable A:LEU61>
0

> <Favorable A:ILE62>
0

> <Favorable A:GLY64>
0

> <Favorable A:SER65>
0

> <Favorable A:TRP66>
0

> <Favorable A:SER69>
0

> <Favorable A:VAL70>
0

> <Favorable A:PRO73>
0

> <Favorable A:ALA74>
0

> <Favorable A:PHE76>
0

> <Favorable A:ALA77>
0

> <Favorable A:THR78>
0

> <Favorable A:GLU79>
0

> <Favorable A:PHE82>
1

> <Favorable A:ARG83>
0

> <Favorable A:LEU85>
1

> <Favorable A:THR86>
1

> <Favorable A:TRP89>
1

> <Favorable A:THR90>
0

> <Favorable A:ASN93>
0

> <Favorable A:HIS94>
0

> <Favorable A:SER96>
0

> <Favorable A:VAL97>
0

> <Favorable A:TRP98>
0

> <Favorable A:PHE140>
0

> <Favorable A:LEU141>
0

> <Favorable A:ASN144>
0

> <Favorable A:ILE148>
0

> <Favorable A:ILE150>
0

> <Favorable A:HIS151>
0

> <Favorable A:ILE152>
0

> <Favorable A:ALA154>
0

> <Favorable A:SER155>
0

> <Favorable A:ILE156>
0

> <Favorable A:GLY158>
0

> <Favorable A:TYR159>
0

> <Favorable A:ARG160>
0

> <Favorable A:ARG161>
0

> <Favorable A:ASN162>
0

> <Favorable A:LYS163>
0

> <Favorable A:SER167>
0

> <Favorable A:ASP168>
0

> <Favorable A:SER169>
0

> <Favorable A:ASN171>
0

> <Favorable A:PHE172>
0

> <Favorable A:THR173>
0

> <Favorable A:ARG174>
0

> <Favorable A:PHE175>
0

> <Favorable A:SER176>
0

> <Favorable A:SER177>
0

> <Favorable A:LEU178>
0

> <Favorable A:ILE179>
0

> <Favorable A:VAL180>
0

> <Favorable A:LEU181>
0

> <Favorable A:SER183>
1

> <Favorable A:THR184>
0

> <Favorable A:PHE186>
0

> <Favorable A:ILE187>
0

> <Favorable A:PHE188>
0

> <Favorable A:ILE189>
0

> <Favorable A:PRO190>
0

> <Favorable A:PHE191>
0

> <Favorable A:TYR240>
0

> <Favorable A:PHE243>
0

> <Favorable A:SER244>
0

> <Favorable A:PHE247>
0

> <Favorable A:PHE248>
0

> <Favorable A:VAL251>
0

> <Favorable A:TRP252>
0

> <Favorable A:SER254>
0

> <Favorable A:GLU255>
0

> <Favorable A:ARG256>
0

> <Favorable A:LEU257>
0

> <Favorable A:GLU258>
0

> <Favorable A:GLU259>
0

> <Favorable A:LEU261>
0

> <Favorable A:ILE262>
0

> <Favorable A:ILE263>
0

> <Favorable A:SER265>
0

> <Favorable A:GLN266>
0

> <Favorable A:MET268>
0

> <Favorable A:GLY269>
0

> <Favorable A:TYR272>
0

> <Favorable A:PRO273>
0

> <Unfavorable A:ARG55>
0

> <Unfavorable A:PRO73>
0

> <Unfavorable A:PHE76>
0

> <Unfavorable A:GLU79>
0

> <Unfavorable A:ARG83>
0

> <Unfavorable A:THR86>
0

> <Unfavorable A:TRP89>
0

> <Unfavorable A:THR90>
0

> <Unfavorable A:ASN93>
0

> <Unfavorable A:TRP98>
0

> <Unfavorable A:ASN144>
0

> <Unfavorable A:SER155>
0

> <Unfavorable A:GLY158>
0

> <Unfavorable A:TYR159>
0

> <Unfavorable A:ASN162>
0

> <Unfavorable A:ASP168>
0

> <Unfavorable A:ASN171>
0

> <Unfavorable A:THR173>
0

> <Unfavorable A:ARG174>
0

> <Unfavorable A:SER183>
0

> <Unfavorable A:THR184>
0

> <Unfavorable A:PHE186>
0

> <Unfavorable A:SER244>
0

> <Unfavorable A:SER254>
0

> <Unfavorable A:GLU255>
0

> <Unfavorable A:SER265>
0

> <Unfavorable A:GLN266>
0

> <Unfavorable A:GLY269>
0

> <Charge A:ARG55>
0

> <Charge A:PHE76>
0

> <Charge A:GLU79>
0

> <Charge A:PHE82>
0

> <Charge A:ARG83>
0

> <Charge A:TRP89>
0

> <Charge A:HIS94>
0

> <Charge A:TRP98>
0

> <Charge A:TYR159>
0

> <Charge A:ARG161>
0

> <Charge A:LYS163>
0

> <Charge A:ASP168>
0

> <Charge A:PHE172>
0

> <Charge A:ARG174>
0

> <Charge A:PHE175>
0

> <Charge A:PHE188>
0

> <Charge A:PHE247>
0

> <Charge A:PHE248>
0

> <Hydrophobic A:LEU58>
0

> <Hydrophobic A:LEU61>
0

> <Hydrophobic A:ILE62>
0

> <Hydrophobic A:TRP66>
0

> <Hydrophobic A:VAL70>
0

> <Hydrophobic A:PRO73>
0

> <Hydrophobic A:ALA74>
0

> <Hydrophobic A:PHE76>
0

> <Hydrophobic A:ALA77>
0

> <Hydrophobic A:THR78>
0

> <Hydrophobic A:PHE82>
1

> <Hydrophobic A:ARG83>
0

> <Hydrophobic A:LEU85>
1

> <Hydrophobic A:TRP89>
1

> <Hydrophobic A:THR90>
0

> <Hydrophobic A:ASN93>
0

> <Hydrophobic A:HIS94>
0

> <Hydrophobic A:VAL97>
0

> <Hydrophobic A:TRP98>
0

> <Hydrophobic A:PHE140>
0

> <Hydrophobic A:LEU141>
0

> <Hydrophobic A:ILE148>
0

> <Hydrophobic A:ILE150>
0

> <Hydrophobic A:HIS151>
0

> <Hydrophobic A:ILE152>
0

> <Hydrophobic A:ALA154>
0

> <Hydrophobic A:SER155>
0

> <Hydrophobic A:ILE156>
0

> <Hydrophobic A:GLY158>
0

> <Hydrophobic A:TYR159>
0

> <Hydrophobic A:ARG160>
0

> <Hydrophobic A:ARG161>
0

> <Hydrophobic A:ASP168>
0

> <Hydrophobic A:ASN171>
0

> <Hydrophobic A:PHE172>
0

> <Hydrophobic A:ARG174>
0

> <Hydrophobic A:PHE175>
0

> <Hydrophobic A:LEU178>
0

> <Hydrophobic A:ILE179>
0

> <Hydrophobic A:VAL180>
0

> <Hydrophobic A:LEU181>
0

> <Hydrophobic A:PHE186>
0

> <Hydrophobic A:ILE187>
0

> <Hydrophobic A:PHE188>
0

> <Hydrophobic A:ILE189>
0

> <Hydrophobic A:PRO190>
0

> <Hydrophobic A:PHE191>
0

> <Hydrophobic A:TYR240>
0

> <Hydrophobic A:PHE243>
0

> <Hydrophobic A:PHE247>
0

> <Hydrophobic A:PHE248>
0

> <Hydrophobic A:VAL251>
0

> <Hydrophobic A:TRP252>
0

> <Hydrophobic A:SER254>
0

> <Hydrophobic A:LEU261>
0

> <Hydrophobic A:ILE262>
0

> <Hydrophobic A:ILE263>
0

> <Hydrophobic A:TYR272>
0

> <Hydrophobic A:PRO273>
0

> <HydrogenBond A:LYS6>
0

> <HydrogenBond A:ARG55>
0

> <HydrogenBond A:GLY64>
0

> <HydrogenBond A:SER65>
0

> <HydrogenBond A:TRP66>
0

> <HydrogenBond A:SER69>
0

> <HydrogenBond A:PRO73>
0

> <HydrogenBond A:ALA74>
0

> <HydrogenBond A:PHE76>
0

> <HydrogenBond A:ALA77>
0

> <HydrogenBond A:THR78>
0

> <HydrogenBond A:GLU79>
0

> <HydrogenBond A:PHE82>
0

> <HydrogenBond A:ARG83>
0

> <HydrogenBond A:LEU85>
0

> <HydrogenBond A:THR86>
1

> <HydrogenBond A:TRP89>
0

> <HydrogenBond A:THR90>
0

> <HydrogenBond A:ASN93>
0

> <HydrogenBond A:HIS94>
0

> <HydrogenBond A:SER96>
0

> <HydrogenBond A:TRP98>
0

> <HydrogenBond A:ASN144>
0

> <HydrogenBond A:HIS151>
0

> <HydrogenBond A:ILE152>
0

> <HydrogenBond A:ALA154>
0

> <HydrogenBond A:SER155>
0

> <HydrogenBond A:ILE156>
0

> <HydrogenBond A:GLY158>
0

> <HydrogenBond A:TYR159>
0

> <HydrogenBond A:ASN162>
0

> <HydrogenBond A:LYS163>
0

> <HydrogenBond A:SER167>
0

> <HydrogenBond A:ASP168>
0

> <HydrogenBond A:SER169>
0

> <HydrogenBond A:ASN171>
0

> <HydrogenBond A:PHE172>
0

> <HydrogenBond A:THR173>
0

> <HydrogenBond A:ARG174>
0

> <HydrogenBond A:PHE175>
0

> <HydrogenBond A:SER176>
0

> <HydrogenBond A:SER177>
0

> <HydrogenBond A:ILE179>
0

> <HydrogenBond A:VAL180>
0

> <HydrogenBond A:SER183>
1

> <HydrogenBond A:THR184>
0

> <HydrogenBond A:PHE186>
0

> <HydrogenBond A:ILE187>
0

> <HydrogenBond A:PRO190>
0

> <HydrogenBond A:TYR240>
0

> <HydrogenBond A:PHE243>
0

> <HydrogenBond A:SER244>
0

> <HydrogenBond A:PHE247>
0

> <HydrogenBond A:VAL251>
0

> <HydrogenBond A:SER254>
0

> <HydrogenBond A:GLU255>
0

> <HydrogenBond A:ARG256>
0

> <HydrogenBond A:LEU257>
0

> <HydrogenBond A:GLU258>
0

> <HydrogenBond A:GLU259>
0

> <HydrogenBond A:ILE262>
0

> <HydrogenBond A:SER265>
0

> <HydrogenBond A:GLN266>
0

> <HydrogenBond A:MET268>
0

> <HydrogenBond A:GLY269>
0

> <HydrogenBond A:PRO273>
0

> <Other A:SER69>
0

> <Other A:TRP89>
0

> <Other A:TYR159>
0

> <Other A:PHE172>
0

> <Other A:SER176>
0

> <Other A:SER265>
0

$$$$
122738
  SciTegic09122300493D

 66 71  0  0  0  0            999 V2000
   14.4082    1.2499  -14.2005 O   0  0  0  1  0  0
   12.2795    0.6233   -9.1062 O   0  0  0  1  0  0
   12.5666   -1.0585  -12.0098 O   0  0  0  1  0  0
   11.0572   -0.1284   -5.7494 O   0  0  0  1  0  0
   16.3000   -0.5445  -11.0580 O   0  5  0  1  0  0
   16.0706   -0.6789   -6.4055 O   0  0  0  1  0  0
   14.9044    3.0906   -9.8727 O   0  5  0  1  0  0
   17.7675    4.4968  -13.2494 O   0  0  0  1  0  0
   11.1376    5.1567  -13.9028 O   0  0  0  1  0  0
    8.9046    4.1934  -12.9358 O   0  0  0  1  0  0
   12.5480    4.2665   -4.4565 O   0  0  0  1  0  0
   13.5603    5.8696   -6.1547 O   0  0  0  1  0  0
   13.8536    0.9046  -11.3588 C   0  0  1  1  0  0
   13.5842   -0.1538  -12.4286 C   0  0  2  1  0  0
   14.4131    0.3121  -10.0922 C   0  0  0  1  0  0
   13.2345    0.5896  -13.7378 C   0  0  1  1  0  0
   14.7943    1.9543  -11.8730 C   0  0  0  1  0  0
   13.6475    0.3645   -8.9406 C   0  0  0  1  0  0
   14.2165    0.0671   -7.7036 C   0  0  0  1  0  0
   11.9212   -0.1220   -6.8751 C   0  0  1  1  0  0
   11.5562    0.9368   -7.9373 C   0  0  1  1  0  0
   13.3745    0.1110   -6.4679 C   0  0  0  1  0  0
   15.1192    1.9753  -13.2309 C   0  0  0  1  0  0
   15.7004   -0.2150  -10.0340 C   0  0  0  1  0  0
   12.0585    1.5568  -13.5999 C   0  0  0  1  0  0
   15.5402   -0.3330   -7.6358 C   0  0  0  1  0  0
   15.3185    2.9302  -11.0219 C   0  0  0  1  0  0
   16.2693   -0.4990   -8.8043 C   0  0  0  1  0  0
   11.8531    2.3693   -7.5263 C   0  0  0  1  0  0
   16.1390    2.8018  -13.6750 C   0  0  0  1  0  0
   16.2909    3.7876  -11.4928 C   0  0  0  1  0  0
   12.1624    2.9207  -13.9122 C   0  0  0  1  0  0
   16.7461    3.6872  -12.7994 C   0  0  0  1  0  0
   10.8411    1.0890  -13.1016 C   0  0  0  1  0  0
   11.7565    2.7722   -6.1940 C   0  0  0  1  0  0
   12.3813    3.2713   -8.4521 C   0  0  0  1  0  0
   11.0968    3.7872  -13.6692 C   0  0  0  1  0  0
    9.7755    1.9472  -12.8700 C   0  0  0  1  0  0
    9.9174    3.2924  -13.1497 C   0  0  0  1  0  0
   12.3559    3.9472   -5.7870 C   0  0  0  1  0  0
   12.9214    4.4832   -8.0480 C   0  0  0  1  0  0
   12.9292    4.7895   -6.7038 C   0  0  0  1  0  0
   12.8150   -1.3677  -11.1441 H   0  0
   10.2163   -0.5088   -5.9840 H   0  0
   16.5123   -1.5065   -6.5000 H   0  0
   18.3803    4.5872  -12.5224 H   0  0
   11.6963    5.3621  -14.6469 H   0  0
    9.3065    5.0329  -13.1399 H   0  0
   13.3710    3.8679   -4.1890 H   0  0
   13.5212    5.6695   -5.2249 H   0  0
   12.9385    1.4455  -11.1343 H   0  0
   14.4976   -0.7285  -12.6284 H   0  0
   12.9562   -0.1493  -14.4894 H   0  0
   11.8978   -1.1135   -7.3507 H   0  0
   10.5114    0.8602   -8.2053 H   0  0
   13.7016   -0.6390   -5.7742 H   0  0
   13.5636    1.0457   -5.9494 H   0  0
   17.2845   -0.8584   -8.8074 H   0  0
   16.4413    2.7710  -14.7097 H   0  0
   16.6600    4.5173  -10.7909 H   0  0
   13.0854    3.3075  -14.3128 H   0  0
   10.7249    0.0437  -12.8569 H   0  0
   11.3511    2.1162   -5.4439 H   0  0
   12.5200    2.9998   -9.4897 H   0  0
    8.8497    1.5756  -12.4568 H   0  0
   13.4364    5.1011   -8.7697 H   0  0
  1 16  1  0
  1 23  1  0
  2 18  1  0
  2 21  1  0
  3 14  1  0
  4 20  1  0
  5 24  1  0
  6 26  1  0
  7 27  1  0
  8 33  1  0
  9 37  1  0
 10 39  1  0
 11 40  1  0
 12 42  1  0
 13 14  1  0
 13 15  1  0
 13 17  1  0
 14 16  1  0
 15 18  2  0
 15 24  1  0
 16 25  1  0
 17 23  2  0
 17 27  1  0
 18 19  1  0
 19 22  1  0
 19 26  2  0
 20 21  1  0
 20 22  1  0
 21 29  1  0
 23 30  1  0
 24 28  2  0
 25 32  2  0
 25 34  1  0
 26 28  1  0
 27 31  2  0
 29 35  2  0
 29 36  1  0
 30 33  2  0
 31 33  1  0
 32 37  1  0
 34 38  2  0
 35 40  1  0
 36 41  2  0
 37 39  2  0
 38 39  1  0
 40 42  2  0
 41 42  1  0
  3 43  1  0
  4 44  1  0
  6 45  1  0
  8 46  1  0
  9 47  1  0
 10 48  1  0
 11 49  1  0
 12 50  1  0
 13 51  1  0
 14 52  1  0
 16 53  1  0
 20 54  1  0
 21 55  1  0
 22 56  1  0
 22 57  1  0
 28 58  1  0
 30 59  1  0
 31 60  1  0
 32 61  1  0
 34 62  1  0
 35 63  1  0
 36 64  1  0
 38 65  1  0
 41 66  1  0
M  CHG  2   5  -1   7  -1
M  END
> <Name>
122738

> <Binding Energy>
-11.9391

> <Ligand Energy>
38.6212

> <Protein Energy>
-7801.1566

> <Complex Energy>
-7774.4746

> <Complex Entropy>
-31.492

> <Protein Entropy>
-31.4717

> <Ligand Entropy>
-20.9207

> <Entropic Energy>
20.9004

> <AbsoluteEnergy>
84.7449

> <ConfNumber>
115

> <Ionization pH>
6.79_DDPPPPPP

> <IonizationIndex>
2

> <MOL_NUMBER>
734

> <NumberOfIonizations>
2

> <NumberOfStereoisomers>
1

> <NumberOfTautomers>
1

> <PUBCHEM_ATOM_DEF_STEREO_COUNT>
5

> <PUBCHEM_ATOM_UDEF_STEREO_COUNT>
0

> <PUBCHEM_BONDANNOTATIONS>
13  43  6
15  18  8
15  24  8
16  25  6
17  23  8
17  27  8
18  19  8
19  26  8
21  29  5
23  30  8
24  28  8
25  32  8
25  34  8
26  28  8
27  31  8
29  35  8
29  36  8
14  3  6
30  33  8
31  33  8
32  37  8
34  38  8
35  40  8
36  41  8
37  39  8
38  39  8
20  4  5
40  42  8
41  42  8

> <PUBCHEM_BOND_DEF_STEREO_COUNT>
0

> <PUBCHEM_BOND_UDEF_STEREO_COUNT>
0

> <PUBCHEM_CACTVS_COMPLEXITY>
925

> <PUBCHEM_CACTVS_HBOND_ACCEPTOR>
12

> <PUBCHEM_CACTVS_HBOND_DONOR>
10

> <PUBCHEM_CACTVS_ROTATABLE_BOND>
3

> <PUBCHEM_CACTVS_SUBSKEYS>
AAADceB4PAAAAAAAAAAAAAAAAAAAAAAAAAA0aMGCAAAAAACRVAAAGgAACAAADRSgmAIwBoAABgCAAiBCAAACCAAgIAAIiAAGiIgNNyKGMRqCeCGlwBULuAfA4PwOoAADCAAIQABAAAYQABCAAAAAAAAAAA==

> <PUBCHEM_CACTVS_TAUTO_COUNT>
986

> <PUBCHEM_CACTVS_TPSA>
221

> <PUBCHEM_COMPONENT_COUNT>
1

> <PUBCHEM_COMPOUND_CANONICALIZED>
1

> <PUBCHEM_COMPOUND_CID>
122738

> <PUBCHEM_COORDINATE_TYPE>
1
5
255

> <PUBCHEM_EXACT_MASS>
578.14242626

> <PUBCHEM_HEAVY_ATOM_COUNT>
42

> <PUBCHEM_ISOTOPIC_ATOM_COUNT>
0

> <PUBCHEM_IUPAC_CAS_NAME>
(2R,3R)-2-(3,4-dihydroxyphenyl)-8-[(2R,3R,4R)-2-(3,4-dihydroxyphenyl)-3,5,7-trihydroxy-3,4-dihydro-2H-1-benzopyran-4-yl]-3,4-dihydro-2H-1-benzopyran-3,5,7-triol

> <PUBCHEM_IUPAC_INCHI>
InChI=1S/C30H26O12/c31-13-7-20(37)24-23(8-13)41-29(12-2-4-16(33)19(36)6-12)27(40)26(24)25-21(38)10-17(34)14-9-22(39)28(42-30(14)25)11-1-3-15(32)18(35)5-11/h1-8,10,22,26-29,31-40H,9H2/t22-,26-,27-,28-,
29-/m1/s1

> <PUBCHEM_IUPAC_INCHIKEY>
XFZJEEAOWLFHDH-NFJBMHMQSA-N

> <PUBCHEM_IUPAC_NAME>
(2R,3R)-2-(3,4-dihydroxyphenyl)-8-[(2R,3R,4R)-2-(3,4-dihydroxyphenyl)-3,5,7-trihydroxy-3,4-dihydro-2H-chromen-4-yl]-3,4-dihydro-2H-chromene-3,5,7-triol

> <PUBCHEM_IUPAC_NAME_MARKUP>
(2<I>R</I>,3<I>R</I>)-2-(3,4-dihydroxyphenyl)-8-[(2<I>R</I>,3<I>R</I>,4<I>R</I>)-2-(3,4-dihydroxyphenyl)-3,5,7-trihydroxy-3,4-dihydro-2<I>H</I>-chromen-4-yl]-3,4-dihydro-2<I>H</I>-chromene-3,5,7-triol

> <PUBCHEM_IUPAC_OPENEYE_NAME>
(2R,3R)-2-(3,4-dihydroxyphenyl)-8-[(2R,3R,4R)-2-(3,4-dihydroxyphenyl)-3,5,7-trihydroxy-chroman-4-yl]chromane-3,5,7-triol

> <PUBCHEM_IUPAC_SYSTEMATIC_NAME>
(2R,3R)-2-[3,4-bis(oxidanyl)phenyl]-8-[(2R,3R,4R)-2-[3,4-bis(oxidanyl)phenyl]-3,5,7-tris(oxidanyl)-3,4-dihydro-2H-chromen-4-yl]-3,4-dihydro-2H-chromene-3,5,7-triol

> <PUBCHEM_IUPAC_TRADITIONAL_NAME>
(2R,3R)-2-(3,4-dihydroxyphenyl)-8-[(2R,3R,4R)-2-(3,4-dihydroxyphenyl)-3,5,7-trihydroxy-chroman-4-yl]chroman-3,5,7-triol

> <PUBCHEM_MOLECULAR_FORMULA>
C30H26O12

> <PUBCHEM_MOLECULAR_WEIGHT>
578.5

> <PUBCHEM_MONOISOTOPIC_WEIGHT>
578.14242626

> <PUBCHEM_OPENEYE_CAN_SMILES>
C1C(C(OC2=C1C(=CC(=C2C3C(C(OC4=CC(=CC(=C34)O)O)C5=CC(=C(C=C5)O)O)O)O)O)C6=CC(=C(C=C6)O)O)O

> <PUBCHEM_OPENEYE_ISO_SMILES>
C1[C@H]([C@H](OC2=C1C(=CC(=C2[C@@H]3[C@H]([C@H](OC4=CC(=CC(=C34)O)O)C5=CC(=C(C=C5)O)O)O)O)O)C6=CC(=C(C=C6)O)O)O

> <PUBCHEM_TOTAL_CHARGE>
0

> <PUBCHEM_XLOGP3_AA>
2.4

> <RelativeEnergy>
14.8957

> <StereoisomerIndex>
1

> <TautomerIndex>
1

> <POSE_NUMBER>
1

> <LibDockScore>
109.5844

> <HotSpots>
11.01,5.47,-15.65,P,18,9
14.01,6.27,-5.46,P,57,11
9.21,3.67,-12.86,A,26,38

> <-In-Situ Starting Energy>
-358234.958

> <-In-Situ Final Energy>
48.4051027

> <In-Situ Gradient>
0.0009777997786

> <Favorable Total>
7

> <Unfavorable Total>
0

> <Charge Total>
0

> <Hydrophobic Total>
3

> <HydrogenBond Total>
4

> <Other Total>
0

> <Favorable A:LYS6>
0

> <Favorable A:ARG55>
0

> <Favorable A:LEU58>
0

> <Favorable A:LEU61>
0

> <Favorable A:ILE62>
0

> <Favorable A:GLY64>
0

> <Favorable A:SER65>
0

> <Favorable A:TRP66>
0

> <Favorable A:SER69>
0

> <Favorable A:VAL70>
0

> <Favorable A:PRO73>
0

> <Favorable A:ALA74>
0

> <Favorable A:PHE76>
0

> <Favorable A:ALA77>
0

> <Favorable A:THR78>
0

> <Favorable A:GLU79>
0

> <Favorable A:PHE82>
0

> <Favorable A:ARG83>
0

> <Favorable A:LEU85>
1

> <Favorable A:THR86>
1

> <Favorable A:TRP89>
0

> <Favorable A:THR90>
0

> <Favorable A:ASN93>
0

> <Favorable A:HIS94>
0

> <Favorable A:SER96>
0

> <Favorable A:VAL97>
0

> <Favorable A:TRP98>
0

> <Favorable A:PHE140>
0

> <Favorable A:LEU141>
0

> <Favorable A:ASN144>
0

> <Favorable A:ILE148>
0

> <Favorable A:ILE150>
0

> <Favorable A:HIS151>
0

> <Favorable A:ILE152>
0

> <Favorable A:ALA154>
0

> <Favorable A:SER155>
0

> <Favorable A:ILE156>
0

> <Favorable A:GLY158>
0

> <Favorable A:TYR159>
0

> <Favorable A:ARG160>
0

> <Favorable A:ARG161>
0

> <Favorable A:ASN162>
0

> <Favorable A:LYS163>
0

> <Favorable A:SER167>
0

> <Favorable A:ASP168>
0

> <Favorable A:SER169>
0

> <Favorable A:ASN171>
0

> <Favorable A:PHE172>
0

> <Favorable A:THR173>
0

> <Favorable A:ARG174>
0

> <Favorable A:PHE175>
0

> <Favorable A:SER176>
1

> <Favorable A:SER177>
0

> <Favorable A:LEU178>
0

> <Favorable A:ILE179>
0

> <Favorable A:VAL180>
2

> <Favorable A:LEU181>
0

> <Favorable A:SER183>
0

> <Favorable A:THR184>
0

> <Favorable A:PHE186>
0

> <Favorable A:ILE187>
0

> <Favorable A:PHE188>
0

> <Favorable A:ILE189>
0

> <Favorable A:PRO190>
0

> <Favorable A:PHE191>
0

> <Favorable A:TYR240>
0

> <Favorable A:PHE243>
0

> <Favorable A:SER244>
0

> <Favorable A:PHE247>
0

> <Favorable A:PHE248>
0

> <Favorable A:VAL251>
0

> <Favorable A:TRP252>
0

> <Favorable A:SER254>
0

> <Favorable A:GLU255>
0

> <Favorable A:ARG256>
0

> <Favorable A:LEU257>
0

> <Favorable A:GLU258>
0

> <Favorable A:GLU259>
0

> <Favorable A:LEU261>
0

> <Favorable A:ILE262>
1

> <Favorable A:ILE263>
0

> <Favorable A:SER265>
1

> <Favorable A:GLN266>
0

> <Favorable A:MET268>
0

> <Favorable A:GLY269>
0

> <Favorable A:TYR272>
0

> <Favorable A:PRO273>
0

> <Unfavorable A:ARG55>
0

> <Unfavorable A:PRO73>
0

> <Unfavorable A:PHE76>
0

> <Unfavorable A:GLU79>
0

> <Unfavorable A:ARG83>
0

> <Unfavorable A:THR86>
0

> <Unfavorable A:TRP89>
0

> <Unfavorable A:THR90>
0

> <Unfavorable A:ASN93>
0

> <Unfavorable A:TRP98>
0

> <Unfavorable A:ASN144>
0

> <Unfavorable A:SER155>
0

> <Unfavorable A:GLY158>
0

> <Unfavorable A:TYR159>
0

> <Unfavorable A:ASN162>
0

> <Unfavorable A:ASP168>
0

> <Unfavorable A:ASN171>
0

> <Unfavorable A:THR173>
0

> <Unfavorable A:ARG174>
0

> <Unfavorable A:SER183>
0

> <Unfavorable A:THR184>
0

> <Unfavorable A:PHE186>
0

> <Unfavorable A:SER244>
0

> <Unfavorable A:SER254>
0

> <Unfavorable A:GLU255>
0

> <Unfavorable A:SER265>
0

> <Unfavorable A:GLN266>
0

> <Unfavorable A:GLY269>
0

> <Charge A:ARG55>
0

> <Charge A:PHE76>
0

> <Charge A:GLU79>
0

> <Charge A:PHE82>
0

> <Charge A:ARG83>
0

> <Charge A:TRP89>
0

> <Charge A:HIS94>
0

> <Charge A:TRP98>
0

> <Charge A:TYR159>
0

> <Charge A:ARG161>
0

> <Charge A:LYS163>
0

> <Charge A:ASP168>
0

> <Charge A:PHE172>
0

> <Charge A:ARG174>
0

> <Charge A:PHE175>
0

> <Charge A:PHE188>
0

> <Charge A:PHE247>
0

> <Charge A:PHE248>
0

> <Hydrophobic A:LEU58>
0

> <Hydrophobic A:LEU61>
0

> <Hydrophobic A:ILE62>
0

> <Hydrophobic A:TRP66>
0

> <Hydrophobic A:VAL70>
0

> <Hydrophobic A:PRO73>
0

> <Hydrophobic A:ALA74>
0

> <Hydrophobic A:PHE76>
0

> <Hydrophobic A:ALA77>
0

> <Hydrophobic A:THR78>
0

> <Hydrophobic A:PHE82>
0

> <Hydrophobic A:ARG83>
0

> <Hydrophobic A:LEU85>
1

> <Hydrophobic A:TRP89>
0

> <Hydrophobic A:THR90>
0

> <Hydrophobic A:ASN93>
0

> <Hydrophobic A:HIS94>
0

> <Hydrophobic A:VAL97>
0

> <Hydrophobic A:TRP98>
0

> <Hydrophobic A:PHE140>
0

> <Hydrophobic A:LEU141>
0

> <Hydrophobic A:ILE148>
0

> <Hydrophobic A:ILE150>
0

> <Hydrophobic A:HIS151>
0

> <Hydrophobic A:ILE152>
0

> <Hydrophobic A:ALA154>
0

> <Hydrophobic A:SER155>
0

> <Hydrophobic A:ILE156>
0

> <Hydrophobic A:GLY158>
0

> <Hydrophobic A:TYR159>
0

> <Hydrophobic A:ARG160>
0

> <Hydrophobic A:ARG161>
0

> <Hydrophobic A:ASP168>
0

> <Hydrophobic A:ASN171>
0

> <Hydrophobic A:PHE172>
0

> <Hydrophobic A:ARG174>
0

> <Hydrophobic A:PHE175>
0

> <Hydrophobic A:LEU178>
0

> <Hydrophobic A:ILE179>
0

> <Hydrophobic A:VAL180>
1

> <Hydrophobic A:LEU181>
0

> <Hydrophobic A:PHE186>
0

> <Hydrophobic A:ILE187>
0

> <Hydrophobic A:PHE188>
0

> <Hydrophobic A:ILE189>
0

> <Hydrophobic A:PRO190>
0

> <Hydrophobic A:PHE191>
0

> <Hydrophobic A:TYR240>
0

> <Hydrophobic A:PHE243>
0

> <Hydrophobic A:PHE247>
0

> <Hydrophobic A:PHE248>
0

> <Hydrophobic A:VAL251>
0

> <Hydrophobic A:TRP252>
0

> <Hydrophobic A:SER254>
0

> <Hydrophobic A:LEU261>
0

> <Hydrophobic A:ILE262>
1

> <Hydrophobic A:ILE263>
0

> <Hydrophobic A:TYR272>
0

> <Hydrophobic A:PRO273>
0

> <HydrogenBond A:LYS6>
0

> <HydrogenBond A:ARG55>
0

> <HydrogenBond A:GLY64>
0

> <HydrogenBond A:SER65>
0

> <HydrogenBond A:TRP66>
0

> <HydrogenBond A:SER69>
0

> <HydrogenBond A:PRO73>
0

> <HydrogenBond A:ALA74>
0

> <HydrogenBond A:PHE76>
0

> <HydrogenBond A:ALA77>
0

> <HydrogenBond A:THR78>
0

> <HydrogenBond A:GLU79>
0

> <HydrogenBond A:PHE82>
0

> <HydrogenBond A:ARG83>
0

> <HydrogenBond A:LEU85>
0

> <HydrogenBond A:THR86>
1

> <HydrogenBond A:TRP89>
0

> <HydrogenBond A:THR90>
0

> <HydrogenBond A:ASN93>
0

> <HydrogenBond A:HIS94>
0

> <HydrogenBond A:SER96>
0

> <HydrogenBond A:TRP98>
0

> <HydrogenBond A:ASN144>
0

> <HydrogenBond A:HIS151>
0

> <HydrogenBond A:ILE152>
0

> <HydrogenBond A:ALA154>
0

> <HydrogenBond A:SER155>
0

> <HydrogenBond A:ILE156>
0

> <HydrogenBond A:GLY158>
0

> <HydrogenBond A:TYR159>
0

> <HydrogenBond A:ASN162>
0

> <HydrogenBond A:LYS163>
0

> <HydrogenBond A:SER167>
0

> <HydrogenBond A:ASP168>
0

> <HydrogenBond A:SER169>
0

> <HydrogenBond A:ASN171>
0

> <HydrogenBond A:PHE172>
0

> <HydrogenBond A:THR173>
0

> <HydrogenBond A:ARG174>
0

> <HydrogenBond A:PHE175>
0

> <HydrogenBond A:SER176>
1

> <HydrogenBond A:SER177>
0

> <HydrogenBond A:ILE179>
0

> <HydrogenBond A:VAL180>
1

> <HydrogenBond A:SER183>
0

> <HydrogenBond A:THR184>
0

> <HydrogenBond A:PHE186>
0

> <HydrogenBond A:ILE187>
0

> <HydrogenBond A:PRO190>
0

> <HydrogenBond A:TYR240>
0

> <HydrogenBond A:PHE243>
0

> <HydrogenBond A:SER244>
0

> <HydrogenBond A:PHE247>
0

> <HydrogenBond A:VAL251>
0

> <HydrogenBond A:SER254>
0

> <HydrogenBond A:GLU255>
0

> <HydrogenBond A:ARG256>
0

> <HydrogenBond A:LEU257>
0

> <HydrogenBond A:GLU258>
0

> <HydrogenBond A:GLU259>
0

> <HydrogenBond A:ILE262>
0

> <HydrogenBond A:SER265>
1

> <HydrogenBond A:GLN266>
0

> <HydrogenBond A:MET268>
0

> <HydrogenBond A:GLY269>
0

> <HydrogenBond A:PRO273>
0

> <Other A:SER69>
0

> <Other A:TRP89>
0

> <Other A:TYR159>
0

> <Other A:PHE172>
0

> <Other A:SER176>
0

> <Other A:SER265>
0

$$$$
147394
  SciTegic09122300493D

 57 60  0  0  0  0            999 V2000
   21.4162    1.2599   -8.1383 O   0  0  0  1  0  0
   19.2567    1.5641   -9.0667 O   0  0  0  1  0  0
   20.8139    1.3093  -11.5650 O   0  0  0  1  0  0
   23.5010   -0.1771   -9.5157 O   0  0  0  1  0  0
   21.2210   -1.4968   -9.3058 O   0  0  0  1  0  0
   23.0153    3.9185   -9.9968 O   0  0  0  1  0  0
   15.0155    1.7031  -11.2316 O   0  0  0  1  0  0
   15.8684   -1.3833   -7.7113 O   0  0  0  1  0  0
   13.4159   -1.2161   -8.5851 O   0  0  0  1  0  0
   10.4465    4.9326  -13.9074 O   0  0  0  1  0  0
   12.3163    5.7407  -12.0860 O   0  0  0  1  0  0
   21.5327    0.3139  -10.8575 C   0  0  1  1  0  0
   22.7768    0.8790  -10.1341 C   0  0  1  1  0  0
   20.6074   -0.3325   -9.8172 C   0  0  2  1  0  0
   22.3858    1.8316   -8.9900 C   0  0  1  1  0  0
   20.2615    0.6363   -8.6648 C   0  0  1  1  0  0
   21.9323    3.2225   -9.3935 C   0  0  0  1  0  0
   17.9611    1.1006   -9.0928 C   0  0  0  1  0  0
   13.8016    1.0588  -11.5836 C   0  0  1  1  0  0
   13.0740    0.3069  -10.4554 C   0  0  0  1  0  0
   15.7887    1.1591  -10.2786 C   0  0  0  1  0  0
   15.2530    0.1352   -9.3633 C   0  0  0  1  0  0
   17.0604    1.5993  -10.1502 C   0  0  0  1  0  0
   13.9657   -0.2583   -9.3973 C   0  0  0  1  0  0
   17.4747    0.2202   -8.1893 C   0  0  0  1  0  0
   16.1660   -0.4226   -8.3545 C   0  0  0  1  0  0
   12.8692    2.0891  -12.1502 C   0  0  0  1  0  0
   13.0122    3.4344  -11.8109 C   0  0  0  1  0  0
   11.8202    1.6944  -12.9727 C   0  0  0  1  0  0
   12.1544    4.3869  -12.3445 C   0  0  0  1  0  0
   10.9582    2.6398  -13.5009 C   0  0  0  1  0  0
   11.1529    3.9804  -13.2144 C   0  0  0  1  0  0
   11.1775    5.2059  -15.0842 C   0  0  0  1  0  0
   21.3654    1.7219  -12.2225 H   0  0
   23.8158   -0.8007  -10.1626 H   0  0
   21.9368   -1.2244   -8.7157 H   0  0
   23.3160    4.6696   -9.4691 H   0  0
   14.0216   -1.5632   -7.9195 H   0  0
   12.6636    5.8651  -11.2106 H   0  0
   21.8157   -0.4682  -11.5709 H   0  0
   23.4403    1.4136  -10.8216 H   0  0
   19.6898   -0.6608  -10.3062 H   0  0
   23.2908    1.9942   -8.4074 H   0  0
   19.9029    0.0395   -7.8372 H   0  0
   21.1266    3.1387  -10.1143 H   0  0
   21.5174    3.7451   -8.5208 H   0  0
   14.0403    0.3375  -12.3672 H   0  0
   12.3640    0.9692   -9.9581 H   0  0
   12.4798   -0.4977  -10.8894 H   0  0
   17.4678    2.3381  -10.8166 H   0  0
   17.9988   -0.0552   -7.3125 H   0  0
   13.8159    3.7293  -11.1522 H   0  0
   11.6805    0.6500  -13.2134 H   0  0
   10.1615    2.3479  -14.1673 H   0  0
   10.9989    4.4483  -15.8443 H   0  0
   12.2487    5.2800  -14.9068 H   0  0
   10.8652    6.1576  -15.4714 H   0  0
  1 15  1  0
  1 16  1  0
  2 16  1  0
  2 18  1  0
  3 12  1  0
  4 13  1  0
  5 14  1  0
  6 17  1  0
  7 19  1  0
  7 21  1  0
  8 26  2  0
  9 24  1  0
 10 32  1  0
 10 33  1  0
 11 30  1  0
 12 13  1  0
 12 14  1  0
 13 15  1  0
 14 16  1  0
 15 17  1  0
 18 23  1  0
 18 25  2  0
 19 20  1  0
 19 27  1  0
 20 24  1  0
 21 22  1  0
 21 23  2  0
 22 24  2  0
 22 26  1  0
 25 26  1  0
 27 28  2  0
 27 29  1  0
 28 30  1  0
 29 31  2  0
 30 32  2  0
 31 32  1  0
  3 34  1  0
  4 35  1  0
  5 36  1  0
  6 37  1  0
  9 38  1  0
 11 39  1  0
 12 40  1  0
 13 41  1  0
 14 42  1  0
 15 43  1  0
 16 44  1  0
 17 45  1  0
 17 46  1  0
 19 47  1  0
 20 48  1  0
 20 49  1  0
 23 50  1  0
 25 51  1  0
 28 52  1  0
 29 53  1  0
 31 54  1  0
 33 55  1  0
 33 56  1  0
 33 57  1  0
M  END
> <Name>
147394

> <Binding Energy>
-61.2524

> <Ligand Energy>
94.8435

> <Protein Energy>
-7801.1566

> <Complex Energy>
-7767.5655

> <Complex Entropy>
-31.49

> <Protein Entropy>
-31.4717

> <Ligand Entropy>
-20.7172

> <Entropic Energy>
20.6989

> <AbsoluteEnergy>
51.8975

> <ConfNumber>
13

> <Ionization pH>
7.5

> <IonizationIndex>
1

> <MOL_NUMBER>
736

> <NumberOfIonizations>
1

> <NumberOfStereoisomers>
1

> <NumberOfTautomers>
2

> <PUBCHEM_ATOM_DEF_STEREO_COUNT>
6

> <PUBCHEM_ATOM_UDEF_STEREO_COUNT>
0

> <PUBCHEM_BONDANNOTATIONS>
15  17  5
18  23  8
18  25  8
19  27  5
16  2  5
21  22  8
21  23  8
22  26  8
25  26  8
27  28  8
27  29  8
28  30  8
29  31  8
12  3  5
30  32  8
31  32  8
13  4  6
14  5  6

> <PUBCHEM_BOND_DEF_STEREO_COUNT>
0

> <PUBCHEM_BOND_UDEF_STEREO_COUNT>
0

> <PUBCHEM_CACTVS_COMPLEXITY>
677

> <PUBCHEM_CACTVS_HBOND_ACCEPTOR>
11

> <PUBCHEM_CACTVS_HBOND_DONOR>
6

> <PUBCHEM_CACTVS_ROTATABLE_BOND>
5

> <PUBCHEM_CACTVS_SUBSKEYS>
AAADceB4PAAAAAAAAAAAAAAAAAAAAAAAAAA0aIEAAAAAAACRQAAAGgAACAAADBSwmAMyDoAABgCIAqBSAAACCAAkIAAIiAEGiMgdNzaGNRqieWOl4BUPuQfI7PzOIAABCAAIQABAAAIQABCAAAAAAAAAAA==

> <PUBCHEM_CACTVS_TAUTO_COUNT>
27

> <PUBCHEM_CACTVS_TPSA>
175

> <PUBCHEM_COMPONENT_COUNT>
1

> <PUBCHEM_COMPOUND_CANONICALIZED>
1

> <PUBCHEM_COMPOUND_CID>
147394

> <PUBCHEM_COORDINATE_TYPE>
1
5
255

> <PUBCHEM_EXACT_MASS>
464.13186158

> <PUBCHEM_HEAVY_ATOM_COUNT>
33

> <PUBCHEM_ISOTOPIC_ATOM_COUNT>
0

> <PUBCHEM_IUPAC_CAS_NAME>
(2S)-5-hydroxy-2-(3-hydroxy-4-methoxyphenyl)-7-[[(2S,3R,4S,5S,6R)-3,4,5-trihydroxy-6-(hydroxymethyl)-2-oxanyl]oxy]-3,4-dihydro-2H-1-benzopyran-4-one

> <PUBCHEM_IUPAC_INCHI>
InChI=1S/C22H24O11/c1-30-14-3-2-9(4-11(14)24)15-7-13(26)18-12(25)5-10(6-16(18)32-15)31-22-21(29)20(28)19(27)17(8-23)33-22/h2-6,15,17,19-25,27-29H,7-8H2,1H3/t15-,17+,19+,20-,21+,22+/m0/s1

> <PUBCHEM_IUPAC_INCHIKEY>
ADSYMQORONDIDD-ZJHVPRRPSA-N

> <PUBCHEM_IUPAC_NAME>
(2S)-5-hydroxy-2-(3-hydroxy-4-methoxyphenyl)-7-[(2S,3R,4S,5S,6R)-3,4,5-trihydroxy-6-(hydroxymethyl)oxan-2-yl]oxy-2,3-dihydrochromen-4-one

> <PUBCHEM_IUPAC_NAME_MARKUP>
(2<I>S</I>)-5-hydroxy-2-(3-hydroxy-4-methoxyphenyl)-7-[(2<I>S</I>,3<I>R</I>,4<I>S</I>,5<I>S</I>,6<I>R</I>)-3,4,5-trihydroxy-6-(hydroxymethyl)oxan-2-yl]oxy-2,3-dihydrochromen-4-one

> <PUBCHEM_IUPAC_OPENEYE_NAME>
(2S)-5-hydroxy-2-(3-hydroxy-4-methoxy-phenyl)-7-[(2S,3R,4S,5S,6R)-3,4,5-trihydroxy-6-(hydroxymethyl)tetrahydropyran-2-yl]oxy-chroman-4-one

> <PUBCHEM_IUPAC_SYSTEMATIC_NAME>
(2S)-7-[(2S,3R,4S,5S,6R)-6-(hydroxymethyl)-3,4,5-tris(oxidanyl)oxan-2-yl]oxy-2-(4-methoxy-3-oxidanyl-phenyl)-5-oxidanyl-2,3-dihydrochromen-4-one

> <PUBCHEM_IUPAC_TRADITIONAL_NAME>
(2S)-5-hydroxy-2-(3-hydroxy-4-methoxy-phenyl)-7-[(2S,3R,4S,5S,6R)-3,4,5-trihydroxy-6-methylol-tetrahydropyran-2-yl]oxy-chroman-4-one

> <PUBCHEM_MOLECULAR_FORMULA>
C22H24O11

> <PUBCHEM_MOLECULAR_WEIGHT>
464.4

> <PUBCHEM_MONOISOTOPIC_WEIGHT>
464.13186158

> <PUBCHEM_OPENEYE_CAN_SMILES>
COC1=C(C=C(C=C1)C2CC(=O)C3=C(C=C(C=C3O2)OC4C(C(C(C(O4)CO)O)O)O)O)O

> <PUBCHEM_OPENEYE_ISO_SMILES>
COC1=C(C=C(C=C1)[C@@H]2CC(=O)C3=C(C=C(C=C3O2)O[C@H]4[C@@H]([C@H]([C@@H]([C@H](O4)CO)O)O)O)O)O

> <PUBCHEM_TOTAL_CHARGE>
0

> <PUBCHEM_XLOGP3_AA>
0.6

> <RelativeEnergy>
5.09899

> <StereoisomerIndex>
1

> <TautomerIndex>
2

> <POSE_NUMBER>
1

> <LibDockScore>
109.5322

> <HotSpots>
21.81,4.27,-8.86,P,37,6
16.81,-2.53,-6.66,P,47,8
9.21,3.67,-12.86,A,26,33

> <-In-Situ Starting Energy>
-1854.7353

> <-In-Situ Final Energy>
-10.260778

> <In-Situ Gradient>
0.0008349128233

> <Favorable Total>
12

> <Unfavorable Total>
0

> <Charge Total>
0

> <Hydrophobic Total>
2

> <HydrogenBond Total>
10

> <Other Total>
0

> <Favorable A:LYS6>
0

> <Favorable A:ARG55>
0

> <Favorable A:LEU58>
0

> <Favorable A:LEU61>
0

> <Favorable A:ILE62>
0

> <Favorable A:GLY64>
0

> <Favorable A:SER65>
0

> <Favorable A:TRP66>
0

> <Favorable A:SER69>
0

> <Favorable A:VAL70>
0

> <Favorable A:PRO73>
0

> <Favorable A:ALA74>
0

> <Favorable A:PHE76>
0

> <Favorable A:ALA77>
0

> <Favorable A:THR78>
0

> <Favorable A:GLU79>
0

> <Favorable A:PHE82>
2

> <Favorable A:ARG83>
0

> <Favorable A:LEU85>
0

> <Favorable A:THR86>
2

> <Favorable A:TRP89>
0

> <Favorable A:THR90>
0

> <Favorable A:ASN93>
0

> <Favorable A:HIS94>
0

> <Favorable A:SER96>
0

> <Favorable A:VAL97>
0

> <Favorable A:TRP98>
0

> <Favorable A:PHE140>
0

> <Favorable A:LEU141>
0

> <Favorable A:ASN144>
0

> <Favorable A:ILE148>
0

> <Favorable A:ILE150>
0

> <Favorable A:HIS151>
0

> <Favorable A:ILE152>
0

> <Favorable A:ALA154>
0

> <Favorable A:SER155>
0

> <Favorable A:ILE156>
0

> <Favorable A:GLY158>
0

> <Favorable A:TYR159>
0

> <Favorable A:ARG160>
0

> <Favorable A:ARG161>
0

> <Favorable A:ASN162>
0

> <Favorable A:LYS163>
0

> <Favorable A:SER167>
0

> <Favorable A:ASP168>
0

> <Favorable A:SER169>
0

> <Favorable A:ASN171>
0

> <Favorable A:PHE172>
0

> <Favorable A:THR173>
2

> <Favorable A:ARG174>
0

> <Favorable A:PHE175>
0

> <Favorable A:SER176>
0

> <Favorable A:SER177>
1

> <Favorable A:LEU178>
0

> <Favorable A:ILE179>
0

> <Favorable A:VAL180>
0

> <Favorable A:LEU181>
0

> <Favorable A:SER183>
0

> <Favorable A:THR184>
0

> <Favorable A:PHE186>
0

> <Favorable A:ILE187>
0

> <Favorable A:PHE188>
0

> <Favorable A:ILE189>
0

> <Favorable A:PRO190>
0

> <Favorable A:PHE191>
0

> <Favorable A:TYR240>
0

> <Favorable A:PHE243>
0

> <Favorable A:SER244>
0

> <Favorable A:PHE247>
0

> <Favorable A:PHE248>
0

> <Favorable A:VAL251>
0

> <Favorable A:TRP252>
0

> <Favorable A:SER254>
2

> <Favorable A:GLU255>
0

> <Favorable A:ARG256>
0

> <Favorable A:LEU257>
0

> <Favorable A:GLU258>
0

> <Favorable A:GLU259>
0

> <Favorable A:LEU261>
0

> <Favorable A:ILE262>
2

> <Favorable A:ILE263>
0

> <Favorable A:SER265>
1

> <Favorable A:GLN266>
0

> <Favorable A:MET268>
0

> <Favorable A:GLY269>
0

> <Favorable A:TYR272>
0

> <Favorable A:PRO273>
0

> <Unfavorable A:ARG55>
0

> <Unfavorable A:PRO73>
0

> <Unfavorable A:PHE76>
0

> <Unfavorable A:GLU79>
0

> <Unfavorable A:ARG83>
0

> <Unfavorable A:THR86>
0

> <Unfavorable A:TRP89>
0

> <Unfavorable A:THR90>
0

> <Unfavorable A:ASN93>
0

> <Unfavorable A:TRP98>
0

> <Unfavorable A:ASN144>
0

> <Unfavorable A:SER155>
0

> <Unfavorable A:GLY158>
0

> <Unfavorable A:TYR159>
0

> <Unfavorable A:ASN162>
0

> <Unfavorable A:ASP168>
0

> <Unfavorable A:ASN171>
0

> <Unfavorable A:THR173>
0

> <Unfavorable A:ARG174>
0

> <Unfavorable A:SER183>
0

> <Unfavorable A:THR184>
0

> <Unfavorable A:PHE186>
0

> <Unfavorable A:SER244>
0

> <Unfavorable A:SER254>
0

> <Unfavorable A:GLU255>
0

> <Unfavorable A:SER265>
0

> <Unfavorable A:GLN266>
0

> <Unfavorable A:GLY269>
0

> <Charge A:ARG55>
0

> <Charge A:PHE76>
0

> <Charge A:GLU79>
0

> <Charge A:PHE82>
0

> <Charge A:ARG83>
0

> <Charge A:TRP89>
0

> <Charge A:HIS94>
0

> <Charge A:TRP98>
0

> <Charge A:TYR159>
0

> <Charge A:ARG161>
0

> <Charge A:LYS163>
0

> <Charge A:ASP168>
0

> <Charge A:PHE172>
0

> <Charge A:ARG174>
0

> <Charge A:PHE175>
0

> <Charge A:PHE188>
0

> <Charge A:PHE247>
0

> <Charge A:PHE248>
0

> <Hydrophobic A:LEU58>
0

> <Hydrophobic A:LEU61>
0

> <Hydrophobic A:ILE62>
0

> <Hydrophobic A:TRP66>
0

> <Hydrophobic A:VAL70>
0

> <Hydrophobic A:PRO73>
0

> <Hydrophobic A:ALA74>
0

> <Hydrophobic A:PHE76>
0

> <Hydrophobic A:ALA77>
0

> <Hydrophobic A:THR78>
0

> <Hydrophobic A:PHE82>
1

> <Hydrophobic A:ARG83>
0

> <Hydrophobic A:LEU85>
0

> <Hydrophobic A:TRP89>
0

> <Hydrophobic A:THR90>
0

> <Hydrophobic A:ASN93>
0

> <Hydrophobic A:HIS94>
0

> <Hydrophobic A:VAL97>
0

> <Hydrophobic A:TRP98>
0

> <Hydrophobic A:PHE140>
0

> <Hydrophobic A:LEU141>
0

> <Hydrophobic A:ILE148>
0

> <Hydrophobic A:ILE150>
0

> <Hydrophobic A:HIS151>
0

> <Hydrophobic A:ILE152>
0

> <Hydrophobic A:ALA154>
0

> <Hydrophobic A:SER155>
0

> <Hydrophobic A:ILE156>
0

> <Hydrophobic A:GLY158>
0

> <Hydrophobic A:TYR159>
0

> <Hydrophobic A:ARG160>
0

> <Hydrophobic A:ARG161>
0

> <Hydrophobic A:ASP168>
0

> <Hydrophobic A:ASN171>
0

> <Hydrophobic A:PHE172>
0

> <Hydrophobic A:ARG174>
0

> <Hydrophobic A:PHE175>
0

> <Hydrophobic A:LEU178>
0

> <Hydrophobic A:ILE179>
0

> <Hydrophobic A:VAL180>
0

> <Hydrophobic A:LEU181>
0

> <Hydrophobic A:PHE186>
0

> <Hydrophobic A:ILE187>
0

> <Hydrophobic A:PHE188>
0

> <Hydrophobic A:ILE189>
0

> <Hydrophobic A:PRO190>
0

> <Hydrophobic A:PHE191>
0

> <Hydrophobic A:TYR240>
0

> <Hydrophobic A:PHE243>
0

> <Hydrophobic A:PHE247>
0

> <Hydrophobic A:PHE248>
0

> <Hydrophobic A:VAL251>
0

> <Hydrophobic A:TRP252>
0

> <Hydrophobic A:SER254>
0

> <Hydrophobic A:LEU261>
0

> <Hydrophobic A:ILE262>
1

> <Hydrophobic A:ILE263>
0

> <Hydrophobic A:TYR272>
0

> <Hydrophobic A:PRO273>
0

> <HydrogenBond A:LYS6>
0

> <HydrogenBond A:ARG55>
0

> <HydrogenBond A:GLY64>
0

> <HydrogenBond A:SER65>
0

> <HydrogenBond A:TRP66>
0

> <HydrogenBond A:SER69>
0

> <HydrogenBond A:PRO73>
0

> <HydrogenBond A:ALA74>
0

> <HydrogenBond A:PHE76>
0

> <HydrogenBond A:ALA77>
0

> <HydrogenBond A:THR78>
0

> <HydrogenBond A:GLU79>
0

> <HydrogenBond A:PHE82>
1

> <HydrogenBond A:ARG83>
0

> <HydrogenBond A:LEU85>
0

> <HydrogenBond A:THR86>
2

> <HydrogenBond A:TRP89>
0

> <HydrogenBond A:THR90>
0

> <HydrogenBond A:ASN93>
0

> <HydrogenBond A:HIS94>
0

> <HydrogenBond A:SER96>
0

> <HydrogenBond A:TRP98>
0

> <HydrogenBond A:ASN144>
0

> <HydrogenBond A:HIS151>
0

> <HydrogenBond A:ILE152>
0

> <HydrogenBond A:ALA154>
0

> <HydrogenBond A:SER155>
0

> <HydrogenBond A:ILE156>
0

> <HydrogenBond A:GLY158>
0

> <HydrogenBond A:TYR159>
0

> <HydrogenBond A:ASN162>
0

> <HydrogenBond A:LYS163>
0

> <HydrogenBond A:SER167>
0

> <HydrogenBond A:ASP168>
0

> <HydrogenBond A:SER169>
0

> <HydrogenBond A:ASN171>
0

> <HydrogenBond A:PHE172>
0

> <HydrogenBond A:THR173>
2

> <HydrogenBond A:ARG174>
0

> <HydrogenBond A:PHE175>
0

> <HydrogenBond A:SER176>
0

> <HydrogenBond A:SER177>
1

> <HydrogenBond A:ILE179>
0

> <HydrogenBond A:VAL180>
0

> <HydrogenBond A:SER183>
0

> <HydrogenBond A:THR184>
0

> <HydrogenBond A:PHE186>
0

> <HydrogenBond A:ILE187>
0

> <HydrogenBond A:PRO190>
0

> <HydrogenBond A:TYR240>
0

> <HydrogenBond A:PHE243>
0

> <HydrogenBond A:SER244>
0

> <HydrogenBond A:PHE247>
0

> <HydrogenBond A:VAL251>
0

> <HydrogenBond A:SER254>
2

> <HydrogenBond A:GLU255>
0

> <HydrogenBond A:ARG256>
0

> <HydrogenBond A:LEU257>
0

> <HydrogenBond A:GLU258>
0

> <HydrogenBond A:GLU259>
0

> <HydrogenBond A:ILE262>
1

> <HydrogenBond A:SER265>
1

> <HydrogenBond A:GLN266>
0

> <HydrogenBond A:MET268>
0

> <HydrogenBond A:GLY269>
0

> <HydrogenBond A:PRO273>
0

> <Other A:SER69>
0

> <Other A:TRP89>
0

> <Other A:TYR159>
0

> <Other A:PHE172>
0

> <Other A:SER176>
0

> <Other A:SER265>
0

$$$$
199472
  SciTegic09122300493D

 50 53  0  0  0  0            999 V2000
   11.3128    1.1644  -10.4590 O   0  0  0  1  0  0
   12.9015    2.7616   -8.8322 O   0  0  0  1  0  0
   12.0504    5.3989  -12.7508 O   0  0  0  1  0  0
    7.8728    3.1032  -13.1251 O   0  0  0  1  0  0
   12.0156   -2.4015  -13.7849 O   0  5  0  1  0  0
   16.1248   -0.4426  -13.7350 O   0  0  0  1  0  0
   14.6907    1.8490   -7.5050 O   0  0  0  1  0  0
   14.2329   -2.2761  -14.7263 O   0  0  0  1  0  0
   10.7871    6.2366   -6.0105 O   0  0  0  1  0  0
   14.5733    4.7064   -3.3658 O   0  0  0  1  0  0
   12.3015    6.0234   -3.6174 O   0  0  0  1  0  0
   13.4354    2.2553  -10.0438 C   0  0  1  1  0  0
   12.7076    0.9363  -10.3748 C   0  0  2  1  0  0
   13.1833    3.3046  -11.1299 C   0  0  0  1  0  0
   11.7598    3.2801  -11.6184 C   0  0  0  1  0  0
   13.1645    0.1955  -11.6148 C   0  0  0  1  0  0
   10.9238    2.2066  -11.2981 C   0  0  0  1  0  0
   11.2608    4.3135  -12.4129 C   0  0  0  1  0  0
    9.6351    2.1519  -11.8083 C   0  0  0  1  0  0
   14.4694    0.2949  -12.1164 C   0  0  0  1  0  0
   12.2728   -0.6928  -12.2279 C   0  0  0  1  0  0
    9.9614    4.2610  -12.8955 C   0  0  0  1  0  0
    9.1522    3.1731  -12.6101 C   0  0  0  1  0  0
   13.6373    2.7110   -7.6786 C   0  0  0  1  0  0
   12.6900   -1.5046  -13.2670 C   0  0  0  1  0  0
   14.8593   -0.4873  -13.1967 C   0  0  0  1  0  0
   13.9617   -1.3791  -13.7366 C   0  0  0  1  0  0
   13.3049    3.5639   -6.6871 C   0  0  0  1  0  0
   14.0789    3.6354   -5.4280 C   0  0  0  1  0  0
   12.1617    4.4937   -6.8173 C   0  0  0  1  0  0
   11.8127    5.3510   -5.8349 C   0  0  0  1  0  0
   13.7759    4.5146   -4.4526 C   0  0  0  1  0  0
   12.5787    5.3509   -4.5634 C   0  0  0  1  0  0
   12.7911    5.0914  -13.2626 H   0  0
    7.8788    2.5632  -13.9049 H   0  0
   16.0885   -1.0536  -14.4689 H   0  0
   14.5380    0.9811   -7.8532 H   0  0
   13.3468   -2.7030  -14.6938 H   0  0
   10.8635    6.6348   -6.8687 H   0  0
   14.5502    5.6372   -3.1311 H   0  0
   14.5144    2.1297   -9.9601 H   0  0
   12.8609    0.2427   -9.5499 H   0  0
   13.4293    4.2968  -10.7502 H   0  0
   13.8397    3.1136  -11.9784 H   0  0
    9.0120    1.3034  -11.5671 H   0  0
   15.2012    0.9544  -11.6781 H   0  0
   11.2557   -0.7867  -11.8879 H   0  0
    9.5873    5.0639  -13.5075 H   0  0
   14.9278    2.9833   -5.3364 H   0  0
   11.6152    4.4501   -7.7425 H   0  0
  1 13  1  0
  1 17  1  0
  2 12  1  0
  2 24  1  0
  3 18  1  0
  4 23  1  0
  5 25  1  0
  6 26  1  0
  7 24  1  0
  8 27  1  0
  9 31  1  0
 10 32  1  0
 11 33  2  0
 12 13  1  0
 12 14  1  0
 13 16  1  0
 14 15  1  0
 15 17  2  0
 15 18  1  0
 16 20  2  0
 16 21  1  0
 17 19  1  0
 18 22  2  0
 19 23  2  0
 20 26  1  0
 21 25  2  0
 22 23  1  0
 24 28  2  0
 25 27  1  0
 26 27  2  0
 28 29  1  0
 28 30  1  0
 29 32  2  0
 30 31  2  0
 31 33  1  0
 32 33  1  0
  3 34  1  0
  4 35  1  0
  6 36  1  0
  7 37  1  0
  8 38  1  0
  9 39  1  0
 10 40  1  0
 12 41  1  0
 13 42  1  0
 14 43  1  0
 14 44  1  0
 19 45  1  0
 20 46  1  0
 21 47  1  0
 22 48  1  0
 29 49  1  0
 30 50  1  0
M  CHG  1   5  -1
M  END
> <Name>
199472

> <Binding Energy>
-48.9585

> <Ligand Energy>
-14.4689

> <Protein Energy>
-7801.1566

> <Complex Energy>
-7864.584

> <Complex Entropy>
-31.4875

> <Protein Entropy>
-31.4717

> <Ligand Entropy>
-20.6066

> <Entropic Energy>
20.5907

> <AbsoluteEnergy>
50.6232

> <ConfNumber>
25

> <Ionization pH>
8.08_DPPPPPPP

> <IonizationIndex>
2

> <MOL_NUMBER>
761

> <NumberOfIonizations>
2

> <NumberOfStereoisomers>
1

> <NumberOfTautomers>
2

> <PUBCHEM_ATOM_DEF_STEREO_COUNT>
2

> <PUBCHEM_ATOM_UDEF_STEREO_COUNT>
0

> <PUBCHEM_BONDANNOTATIONS>
13  16  6
15  17  8
15  18  8
16  20  8
16  21  8
17  19  8
18  22  8
19  23  8
12  2  5
20  26  8
21  25  8
22  23  8
25  27  8
26  27  8
28  29  8
28  30  8
29  32  8
30  31  8
31  33  8
32  33  8

> <PUBCHEM_BOND_DEF_STEREO_COUNT>
0

> <PUBCHEM_BOND_UDEF_STEREO_COUNT>
0

> <PUBCHEM_CACTVS_COMPLEXITY>
667

> <PUBCHEM_CACTVS_HBOND_ACCEPTOR>
11

> <PUBCHEM_CACTVS_HBOND_DONOR>
8

> <PUBCHEM_CACTVS_ROTATABLE_BOND>
4

> <PUBCHEM_CACTVS_SUBSKEYS>
AAADceB4PAAAAAAAAAAAAAAAAAAAAAAAAAA0YMEAAAAAAACRUAAAGgAACAAADBSgmAIwDoAABgCIAiDSCAACCAAkIAAAiAEGiMgNJzKGNRqCeSGlwBULuYfK7PzOIAABCAAIQABAAAIQABCAAAAAAAAAAA==

> <PUBCHEM_CACTVS_TAUTO_COUNT>
1000

> <PUBCHEM_CACTVS_TPSA>
197

> <PUBCHEM_COMPONENT_COUNT>
1

> <PUBCHEM_COMPOUND_CANONICALIZED>
1

> <PUBCHEM_COMPOUND_CID>
199472

> <PUBCHEM_COORDINATE_TYPE>
1
5
255

> <PUBCHEM_EXACT_MASS>
458.08491139

> <PUBCHEM_HEAVY_ATOM_COUNT>
33

> <PUBCHEM_ISOTOPIC_ATOM_COUNT>
0

> <PUBCHEM_IUPAC_CAS_NAME>
3,4,5-trihydroxybenzoic acid [(2S,3R)-5,7-dihydroxy-2-(3,4,5-trihydroxyphenyl)-3,4-dihydro-2H-1-benzopyran-3-yl] ester

> <PUBCHEM_IUPAC_INCHI>
InChI=1S/C22H18O11/c23-10-5-12(24)11-7-18(33-22(31)9-3-15(27)20(30)16(28)4-9)21(32-17(11)6-10)8-1-13(25)19(29)14(26)2-8/h1-6,18,21,23-30H,7H2/t18-,21+/m1/s1

> <PUBCHEM_IUPAC_INCHIKEY>
WMBWREPUVVBILR-NQIIRXRSSA-N

> <PUBCHEM_IUPAC_NAME>
[(2S,3R)-5,7-dihydroxy-2-(3,4,5-trihydroxyphenyl)-3,4-dihydro-2H-chromen-3-yl] 3,4,5-trihydroxybenzoate

> <PUBCHEM_IUPAC_NAME_MARKUP>
[(2<I>S</I>,3<I>R</I>)-5,7-dihydroxy-2-(3,4,5-trihydroxyphenyl)-3,4-dihydro-2<I>H</I>-chromen-3-yl] 3,4,5-trihydroxybenzoate

> <PUBCHEM_IUPAC_OPENEYE_NAME>
[(2S,3R)-5,7-dihydroxy-2-(3,4,5-trihydroxyphenyl)chroman-3-yl] 3,4,5-trihydroxybenzoate

> <PUBCHEM_IUPAC_SYSTEMATIC_NAME>
[(2S,3R)-5,7-bis(oxidanyl)-2-[3,4,5-tris(oxidanyl)phenyl]-3,4-dihydro-2H-chromen-3-yl] 3,4,5-tris(oxidanyl)benzoate

> <PUBCHEM_IUPAC_TRADITIONAL_NAME>
3,4,5-trihydroxybenzoic acid [(2S,3R)-5,7-dihydroxy-2-(3,4,5-trihydroxyphenyl)chroman-3-yl] ester

> <PUBCHEM_MOLECULAR_FORMULA>
C22H18O11

> <PUBCHEM_MOLECULAR_WEIGHT>
458.4

> <PUBCHEM_MONOISOTOPIC_WEIGHT>
458.08491139

> <PUBCHEM_OPENEYE_CAN_SMILES>
C1C(C(OC2=CC(=CC(=C21)O)O)C3=CC(=C(C(=C3)O)O)O)OC(=O)C4=CC(=C(C(=C4)O)O)O

> <PUBCHEM_OPENEYE_ISO_SMILES>
C1[C@H]([C@@H](OC2=CC(=CC(=C21)O)O)C3=CC(=C(C(=C3)O)O)O)OC(=O)C4=CC(=C(C(=C4)O)O)O

> <PUBCHEM_TOTAL_CHARGE>
0

> <PUBCHEM_XLOGP3>
1.2

> <RelativeEnergy>
9.23976

> <StereoisomerIndex>
1

> <TautomerIndex>
2

> <POSE_NUMBER>
1

> <LibDockScore>
104.6966

> <HotSpots>
11.41,-3.13,-14.46,P,20,5
14.01,6.27,-5.46,P,57,11
9.21,3.67,-12.86,A,26,22

> <-In-Situ Starting Energy>
-177.141584

> <-In-Situ Final Energy>
73.4282956

> <In-Situ Gradient>
0.0009514422084

> <Favorable Total>
13

> <Unfavorable Total>
0

> <Charge Total>
0

> <Hydrophobic Total>
6

> <HydrogenBond Total>
7

> <Other Total>
0

> <Favorable A:LYS6>
0

> <Favorable A:ARG55>
0

> <Favorable A:LEU58>
0

> <Favorable A:LEU61>
0

> <Favorable A:ILE62>
0

> <Favorable A:GLY64>
0

> <Favorable A:SER65>
0

> <Favorable A:TRP66>
0

> <Favorable A:SER69>
1

> <Favorable A:VAL70>
0

> <Favorable A:PRO73>
0

> <Favorable A:ALA74>
0

> <Favorable A:PHE76>
0

> <Favorable A:ALA77>
0

> <Favorable A:THR78>
0

> <Favorable A:GLU79>
0

> <Favorable A:PHE82>
0

> <Favorable A:ARG83>
0

> <Favorable A:LEU85>
0

> <Favorable A:THR86>
1

> <Favorable A:TRP89>
3

> <Favorable A:THR90>
0

> <Favorable A:ASN93>
0

> <Favorable A:HIS94>
0

> <Favorable A:SER96>
0

> <Favorable A:VAL97>
0

> <Favorable A:TRP98>
0

> <Favorable A:PHE140>
0

> <Favorable A:LEU141>
0

> <Favorable A:ASN144>
0

> <Favorable A:ILE148>
0

> <Favorable A:ILE150>
0

> <Favorable A:HIS151>
0

> <Favorable A:ILE152>
0

> <Favorable A:ALA154>
0

> <Favorable A:SER155>
0

> <Favorable A:ILE156>
0

> <Favorable A:GLY158>
0

> <Favorable A:TYR159>
0

> <Favorable A:ARG160>
0

> <Favorable A:ARG161>
0

> <Favorable A:ASN162>
0

> <Favorable A:LYS163>
0

> <Favorable A:SER167>
0

> <Favorable A:ASP168>
0

> <Favorable A:SER169>
0

> <Favorable A:ASN171>
0

> <Favorable A:PHE172>
0

> <Favorable A:THR173>
0

> <Favorable A:ARG174>
0

> <Favorable A:PHE175>
0

> <Favorable A:SER176>
0

> <Favorable A:SER177>
0

> <Favorable A:LEU178>
0

> <Favorable A:ILE179>
0

> <Favorable A:VAL180>
2

> <Favorable A:LEU181>
0

> <Favorable A:SER183>
2

> <Favorable A:THR184>
0

> <Favorable A:PHE186>
0

> <Favorable A:ILE187>
0

> <Favorable A:PHE188>
0

> <Favorable A:ILE189>
0

> <Favorable A:PRO190>
0

> <Favorable A:PHE191>
0

> <Favorable A:TYR240>
0

> <Favorable A:PHE243>
0

> <Favorable A:SER244>
0

> <Favorable A:PHE247>
1

> <Favorable A:PHE248>
0

> <Favorable A:VAL251>
1

> <Favorable A:TRP252>
0

> <Favorable A:SER254>
0

> <Favorable A:GLU255>
0

> <Favorable A:ARG256>
0

> <Favorable A:LEU257>
0

> <Favorable A:GLU258>
0

> <Favorable A:GLU259>
0

> <Favorable A:LEU261>
0

> <Favorable A:ILE262>
1

> <Favorable A:ILE263>
0

> <Favorable A:SER265>
0

> <Favorable A:GLN266>
1

> <Favorable A:MET268>
0

> <Favorable A:GLY269>
0

> <Favorable A:TYR272>
0

> <Favorable A:PRO273>
0

> <Unfavorable A:ARG55>
0

> <Unfavorable A:PRO73>
0

> <Unfavorable A:PHE76>
0

> <Unfavorable A:GLU79>
0

> <Unfavorable A:ARG83>
0

> <Unfavorable A:THR86>
0

> <Unfavorable A:TRP89>
0

> <Unfavorable A:THR90>
0

> <Unfavorable A:ASN93>
0

> <Unfavorable A:TRP98>
0

> <Unfavorable A:ASN144>
0

> <Unfavorable A:SER155>
0

> <Unfavorable A:GLY158>
0

> <Unfavorable A:TYR159>
0

> <Unfavorable A:ASN162>
0

> <Unfavorable A:ASP168>
0

> <Unfavorable A:ASN171>
0

> <Unfavorable A:THR173>
0

> <Unfavorable A:ARG174>
0

> <Unfavorable A:SER183>
0

> <Unfavorable A:THR184>
0

> <Unfavorable A:PHE186>
0

> <Unfavorable A:SER244>
0

> <Unfavorable A:SER254>
0

> <Unfavorable A:GLU255>
0

> <Unfavorable A:SER265>
0

> <Unfavorable A:GLN266>
0

> <Unfavorable A:GLY269>
0

> <Charge A:ARG55>
0

> <Charge A:PHE76>
0

> <Charge A:GLU79>
0

> <Charge A:PHE82>
0

> <Charge A:ARG83>
0

> <Charge A:TRP89>
0

> <Charge A:HIS94>
0

> <Charge A:TRP98>
0

> <Charge A:TYR159>
0

> <Charge A:ARG161>
0

> <Charge A:LYS163>
0

> <Charge A:ASP168>
0

> <Charge A:PHE172>
0

> <Charge A:ARG174>
0

> <Charge A:PHE175>
0

> <Charge A:PHE188>
0

> <Charge A:PHE247>
0

> <Charge A:PHE248>
0

> <Hydrophobic A:LEU58>
0

> <Hydrophobic A:LEU61>
0

> <Hydrophobic A:ILE62>
0

> <Hydrophobic A:TRP66>
0

> <Hydrophobic A:VAL70>
0

> <Hydrophobic A:PRO73>
0

> <Hydrophobic A:ALA74>
0

> <Hydrophobic A:PHE76>
0

> <Hydrophobic A:ALA77>
0

> <Hydrophobic A:THR78>
0

> <Hydrophobic A:PHE82>
0

> <Hydrophobic A:ARG83>
0

> <Hydrophobic A:LEU85>
0

> <Hydrophobic A:TRP89>
2

> <Hydrophobic A:THR90>
0

> <Hydrophobic A:ASN93>
0

> <Hydrophobic A:HIS94>
0

> <Hydrophobic A:VAL97>
0

> <Hydrophobic A:TRP98>
0

> <Hydrophobic A:PHE140>
0

> <Hydrophobic A:LEU141>
0

> <Hydrophobic A:ILE148>
0

> <Hydrophobic A:ILE150>
0

> <Hydrophobic A:HIS151>
0

> <Hydrophobic A:ILE152>
0

> <Hydrophobic A:ALA154>
0

> <Hydrophobic A:SER155>
0

> <Hydrophobic A:ILE156>
0

> <Hydrophobic A:GLY158>
0

> <Hydrophobic A:TYR159>
0

> <Hydrophobic A:ARG160>
0

> <Hydrophobic A:ARG161>
0

> <Hydrophobic A:ASP168>
0

> <Hydrophobic A:ASN171>
0

> <Hydrophobic A:PHE172>
0

> <Hydrophobic A:ARG174>
0

> <Hydrophobic A:PHE175>
0

> <Hydrophobic A:LEU178>
0

> <Hydrophobic A:ILE179>
0

> <Hydrophobic A:VAL180>
1

> <Hydrophobic A:LEU181>
0

> <Hydrophobic A:PHE186>
0

> <Hydrophobic A:ILE187>
0

> <Hydrophobic A:PHE188>
0

> <Hydrophobic A:ILE189>
0

> <Hydrophobic A:PRO190>
0

> <Hydrophobic A:PHE191>
0

> <Hydrophobic A:TYR240>
0

> <Hydrophobic A:PHE243>
0

> <Hydrophobic A:PHE247>
1

> <Hydrophobic A:PHE248>
0

> <Hydrophobic A:VAL251>
1

> <Hydrophobic A:TRP252>
0

> <Hydrophobic A:SER254>
0

> <Hydrophobic A:LEU261>
0

> <Hydrophobic A:ILE262>
1

> <Hydrophobic A:ILE263>
0

> <Hydrophobic A:TYR272>
0

> <Hydrophobic A:PRO273>
0

> <HydrogenBond A:LYS6>
0

> <HydrogenBond A:ARG55>
0

> <HydrogenBond A:GLY64>
0

> <HydrogenBond A:SER65>
0

> <HydrogenBond A:TRP66>
0

> <HydrogenBond A:SER69>
1

> <HydrogenBond A:PRO73>
0

> <HydrogenBond A:ALA74>
0

> <HydrogenBond A:PHE76>
0

> <HydrogenBond A:ALA77>
0

> <HydrogenBond A:THR78>
0

> <HydrogenBond A:GLU79>
0

> <HydrogenBond A:PHE82>
0

> <HydrogenBond A:ARG83>
0

> <HydrogenBond A:LEU85>
0

> <HydrogenBond A:THR86>
1

> <HydrogenBond A:TRP89>
1

> <HydrogenBond A:THR90>
0

> <HydrogenBond A:ASN93>
0

> <HydrogenBond A:HIS94>
0

> <HydrogenBond A:SER96>
0

> <HydrogenBond A:TRP98>
0

> <HydrogenBond A:ASN144>
0

> <HydrogenBond A:HIS151>
0

> <HydrogenBond A:ILE152>
0

> <HydrogenBond A:ALA154>
0

> <HydrogenBond A:SER155>
0

> <HydrogenBond A:ILE156>
0

> <HydrogenBond A:GLY158>
0

> <HydrogenBond A:TYR159>
0

> <HydrogenBond A:ASN162>
0

> <HydrogenBond A:LYS163>
0

> <HydrogenBond A:SER167>
0

> <HydrogenBond A:ASP168>
0

> <HydrogenBond A:SER169>
0

> <HydrogenBond A:ASN171>
0

> <HydrogenBond A:PHE172>
0

> <HydrogenBond A:THR173>
0

> <HydrogenBond A:ARG174>
0

> <HydrogenBond A:PHE175>
0

> <HydrogenBond A:SER176>
0

> <HydrogenBond A:SER177>
0

> <HydrogenBond A:ILE179>
0

> <HydrogenBond A:VAL180>
1

> <HydrogenBond A:SER183>
2

> <HydrogenBond A:THR184>
0

> <HydrogenBond A:PHE186>
0

> <HydrogenBond A:ILE187>
0

> <HydrogenBond A:PRO190>
0

> <HydrogenBond A:TYR240>
0

> <HydrogenBond A:PHE243>
0

> <HydrogenBond A:SER244>
0

> <HydrogenBond A:PHE247>
0

> <HydrogenBond A:VAL251>
0

> <HydrogenBond A:SER254>
0

> <HydrogenBond A:GLU255>
0

> <HydrogenBond A:ARG256>
0

> <HydrogenBond A:LEU257>
0

> <HydrogenBond A:GLU258>
0

> <HydrogenBond A:GLU259>
0

> <HydrogenBond A:ILE262>
0

> <HydrogenBond A:SER265>
0

> <HydrogenBond A:GLN266>
1

> <HydrogenBond A:MET268>
0

> <HydrogenBond A:GLY269>
0

> <HydrogenBond A:PRO273>
0

> <Other A:SER69>
0

> <Other A:TRP89>
0

> <Other A:TYR159>
0

> <Other A:PHE172>
0

> <Other A:SER176>
0

> <Other A:SER265>
0

$$$$
358832
  SciTegic09122300493D

 48 50  0  0  0  0            999 V2000
   14.5238    1.6556  -14.5273 O   0  0  0  1  0  0
   14.5087    3.4449  -12.7372 O   0  0  0  1  0  0
   12.5907    3.4248  -10.5802 O   0  0  0  1  0  0
   11.2586    0.9989  -10.0007 O   0  0  0  1  0  0
   11.2939   -0.8753  -12.1869 O   0  0  0  1  0  0
   12.0870   -1.7248  -14.4933 O   0  0  0  1  0  0
   17.1506   -0.5162  -19.6118 O   0  0  0  1  0  0
   18.0604    1.9483  -19.8626 O   0  0  0  1  0  0
   12.8290    0.2977  -13.4206 C   0  0  0  1  0  0
   13.6725    1.4935  -13.4867 C   0  0  0  1  0  0
   13.6238    2.4379  -12.5278 C   0  0  0  1  0  0
   14.5888    0.7484  -15.5365 C   0  0  0  1  0  0
   11.9676    0.1121  -12.2370 C   0  0  0  1  0  0
   12.6719    2.3123  -11.3808 C   0  0  0  1  0  0
   12.8623   -0.5982  -14.4282 C   0  0  0  1  0  0
   11.9578    1.1682  -11.1695 C   0  0  0  1  0  0
   15.5343    1.0387  -16.6333 C   0  0  0  1  0  0
   13.7936   -0.3459  -15.5325 C   0  0  0  1  0  0
   15.9195    0.0677  -17.5587 C   0  0  0  1  0  0
   16.0467    2.3250  -16.7608 C   0  0  0  1  0  0
   16.7660    0.3898  -18.6232 C   0  0  0  1  0  0
   17.2540    1.6877  -18.7528 C   0  0  0  1  0  0
   16.8917    2.6499  -17.8108 C   0  0  0  1  0  0
   14.7494    4.4391  -11.7616 C   0  0  0  1  0  0
   11.5413    3.6070   -9.6483 C   0  0  0  1  0  0
   10.7161   -0.2609   -9.6534 C   0  0  0  1  0  0
   16.3538   -1.6779  -19.7393 C   0  0  0  1  0  0
   18.4163    3.3004  -20.0765 C   0  0  0  1  0  0
   11.5112   -1.7478  -13.7338 H   0  0
   13.7763   -1.0779  -16.3169 H   0  0
   15.5575   -0.9414  -17.4593 H   0  0
   15.7795    3.0992  -16.0589 H   0  0
   17.2348    3.6690  -17.8867 H   0  0
   14.9859    3.9936  -10.7940 H   0  0
   13.8974    5.1134  -11.6713 H   0  0
   15.6085    5.0380  -12.0632 H   0  0
   11.6823    2.9768   -8.7703 H   0  0
   10.5703    3.4072  -10.1035 H   0  0
   11.5381    4.6413   -9.3051 H   0  0
   11.4733   -1.0435   -9.7177 H   0  0
    9.8664   -0.5081  -10.2913 H   0  0
   10.3655   -0.2339   -8.6232 H   0  0
   15.3007   -1.4231  -19.8675 H   0  0
   16.4768   -2.3377  -18.8800 H   0  0
   16.6697   -2.2303  -20.6227 H   0  0
   19.0533    3.6691  -19.2722 H   0  0
   17.5308    3.9316  -20.1683 H   0  0
   18.9791    3.3832  -21.0059 H   0  0
  1 10  1  0
  1 12  1  0
  2 11  1  0
  2 24  1  0
  3 14  1  0
  3 25  1  0
  4 16  1  0
  4 26  1  0
  5 13  2  0
  6 15  1  0
  7 21  1  0
  7 27  1  0
  8 22  1  0
  8 28  1  0
  9 10  1  0
  9 13  1  0
  9 15  2  0
 10 11  2  0
 11 14  1  0
 12 17  1  0
 12 18  2  0
 13 16  1  0
 14 16  2  0
 15 18  1  0
 17 19  2  0
 17 20  1  0
 19 21  1  0
 20 23  2  0
 21 22  2  0
 22 23  1  0
  6 29  1  0
 18 30  1  0
 19 31  1  0
 20 32  1  0
 23 33  1  0
 24 34  1  0
 24 35  1  0
 24 36  1  0
 25 37  1  0
 25 38  1  0
 25 39  1  0
 26 40  1  0
 26 41  1  0
 26 42  1  0
 27 43  1  0
 27 44  1  0
 27 45  1  0
 28 46  1  0
 28 47  1  0
 28 48  1  0
M  END
> <Name>
358832

> <Binding Energy>
-42.3264

> <Ligand Energy>
51.4456

> <Protein Energy>
-7801.1566

> <Complex Energy>
-7792.0374

> <Complex Entropy>
-31.4874

> <Protein Entropy>
-31.4717

> <Ligand Entropy>
-20.1533

> <Entropic Energy>
20.1376

> <AbsoluteEnergy>
96.128

> <ConfNumber>
8

> <Ionization pH>
7.5

> <IonizationIndex>
1

> <MOL_NUMBER>
763

> <NumberOfIonizations>
1

> <NumberOfStereoisomers>
1

> <NumberOfTautomers>
2

> <PUBCHEM_ATOM_DEF_STEREO_COUNT>
0

> <PUBCHEM_ATOM_UDEF_STEREO_COUNT>
0

> <PUBCHEM_BONDANNOTATIONS>
1  10  8
1  12  8
10  11  8
11  14  8
12  18  8
13  16  8
14  16  8
15  18  8
17  19  8
17  20  8
19  21  8
20  23  8
21  22  8
22  23  8
9  10  8
9  13  8
9  15  8

> <PUBCHEM_BOND_DEF_STEREO_COUNT>
0

> <PUBCHEM_BOND_UDEF_STEREO_COUNT>
0

> <PUBCHEM_CACTVS_COMPLEXITY>
579

> <PUBCHEM_CACTVS_HBOND_ACCEPTOR>
8

> <PUBCHEM_CACTVS_HBOND_DONOR>
1

> <PUBCHEM_CACTVS_ROTATABLE_BOND>
6

> <PUBCHEM_CACTVS_SUBSKEYS>
AAADceB4PAAAAAAAAAAAAAAAAAAAAAAAAAAwYIAAAAAAAACBQAAAGgAACAAADASAmAIyBoAABgCIAqBSAAACCAAkIAAIiAEGiMgNJzaGNRqCeWOl4BULuQfK7LzOIQABCAAIQABCAAIQABCAAAAAAAAAAA==

> <PUBCHEM_CACTVS_TAUTO_COUNT>
4

> <PUBCHEM_CACTVS_TPSA>
92.7

> <PUBCHEM_COMPONENT_COUNT>
1

> <PUBCHEM_COMPOUND_CANONICALIZED>
1

> <PUBCHEM_COMPOUND_CID>
358832

> <PUBCHEM_COORDINATE_TYPE>
1
5
255

> <PUBCHEM_EXACT_MASS>
388.11581759

> <PUBCHEM_HEAVY_ATOM_COUNT>
28

> <PUBCHEM_ISOTOPIC_ATOM_COUNT>
0

> <PUBCHEM_IUPAC_CAS_NAME>
2-(3,4-dimethoxyphenyl)-5-hydroxy-6,7,8-trimethoxy-1-benzopyran-4-one

> <PUBCHEM_IUPAC_INCHI>
InChI=1S/C20H20O8/c1-23-12-7-6-10(8-14(12)24-2)13-9-11(21)15-16(22)18(25-3)20(27-5)19(26-4)17(15)28-13/h6-9,22H,1-5H3

> <PUBCHEM_IUPAC_INCHIKEY>
DOFJNFPSMUCECH-UHFFFAOYSA-N

> <PUBCHEM_IUPAC_NAME>
2-(3,4-dimethoxyphenyl)-5-hydroxy-6,7,8-trimethoxychromen-4-one

> <PUBCHEM_IUPAC_NAME_MARKUP>
2-(3,4-dimethoxyphenyl)-5-hydroxy-6,7,8-trimethoxychromen-4-one

> <PUBCHEM_IUPAC_OPENEYE_NAME>
2-(3,4-dimethoxyphenyl)-5-hydroxy-6,7,8-trimethoxy-chromen-4-one

> <PUBCHEM_IUPAC_SYSTEMATIC_NAME>
2-(3,4-dimethoxyphenyl)-6,7,8-trimethoxy-5-oxidanyl-chromen-4-one

> <PUBCHEM_IUPAC_TRADITIONAL_NAME>
2-(3,4-dimethoxyphenyl)-5-hydroxy-6,7,8-trimethoxy-chromone

> <PUBCHEM_MOLECULAR_FORMULA>
C20H20O8

> <PUBCHEM_MOLECULAR_WEIGHT>
388.4

> <PUBCHEM_MONOISOTOPIC_WEIGHT>
388.11581759

> <PUBCHEM_OPENEYE_CAN_SMILES>
COC1=C(C=C(C=C1)C2=CC(=O)C3=C(C(=C(C(=C3O2)OC)OC)OC)O)OC

> <PUBCHEM_OPENEYE_ISO_SMILES>
COC1=C(C=C(C=C1)C2=CC(=O)C3=C(C(=C(C(=C3O2)OC)OC)OC)O)OC

> <PUBCHEM_TOTAL_CHARGE>
0

> <PUBCHEM_XLOGP3_AA>
3.2

> <RelativeEnergy>
12.2333

> <StereoisomerIndex>
1

> <TautomerIndex>
2

> <POSE_NUMBER>
1

> <LibDockScore>
60.1602

> <HotSpots>
16.81,4.47,-18.66,A,7,23
11.21,4.87,-14.65,A,18,24
9.01,2.67,-14.05,A,21,25

> <-In-Situ Starting Energy>
-250.119026

> <-In-Situ Final Energy>
-6.6838688

> <In-Situ Gradient>
0.01873219301

> <Favorable Total>
7

> <Unfavorable Total>
0

> <Charge Total>
0

> <Hydrophobic Total>
3

> <HydrogenBond Total>
4

> <Other Total>
0

> <Favorable A:LYS6>
0

> <Favorable A:ARG55>
0

> <Favorable A:LEU58>
0

> <Favorable A:LEU61>
0

> <Favorable A:ILE62>
0

> <Favorable A:GLY64>
0

> <Favorable A:SER65>
0

> <Favorable A:TRP66>
0

> <Favorable A:SER69>
1

> <Favorable A:VAL70>
0

> <Favorable A:PRO73>
1

> <Favorable A:ALA74>
0

> <Favorable A:PHE76>
4

> <Favorable A:ALA77>
0

> <Favorable A:THR78>
0

> <Favorable A:GLU79>
0

> <Favorable A:PHE82>
0

> <Favorable A:ARG83>
0

> <Favorable A:LEU85>
0

> <Favorable A:THR86>
0

> <Favorable A:TRP89>
0

> <Favorable A:THR90>
0

> <Favorable A:ASN93>
0

> <Favorable A:HIS94>
0

> <Favorable A:SER96>
0

> <Favorable A:VAL97>
0

> <Favorable A:TRP98>
0

> <Favorable A:PHE140>
0

> <Favorable A:LEU141>
0

> <Favorable A:ASN144>
0

> <Favorable A:ILE148>
0

> <Favorable A:ILE150>
0

> <Favorable A:HIS151>
0

> <Favorable A:ILE152>
0

> <Favorable A:ALA154>
0

> <Favorable A:SER155>
0

> <Favorable A:ILE156>
0

> <Favorable A:GLY158>
0

> <Favorable A:TYR159>
0

> <Favorable A:ARG160>
0

> <Favorable A:ARG161>
0

> <Favorable A:ASN162>
0

> <Favorable A:LYS163>
0

> <Favorable A:SER167>
0

> <Favorable A:ASP168>
0

> <Favorable A:SER169>
0

> <Favorable A:ASN171>
0

> <Favorable A:PHE172>
0

> <Favorable A:THR173>
0

> <Favorable A:ARG174>
0

> <Favorable A:PHE175>
0

> <Favorable A:SER176>
0

> <Favorable A:SER177>
0

> <Favorable A:LEU178>
0

> <Favorable A:ILE179>
0

> <Favorable A:VAL180>
0

> <Favorable A:LEU181>
0

> <Favorable A:SER183>
0

> <Favorable A:THR184>
0

> <Favorable A:PHE186>
0

> <Favorable A:ILE187>
0

> <Favorable A:PHE188>
0

> <Favorable A:ILE189>
0

> <Favorable A:PRO190>
0

> <Favorable A:PHE191>
0

> <Favorable A:TYR240>
0

> <Favorable A:PHE243>
0

> <Favorable A:SER244>
0

> <Favorable A:PHE247>
0

> <Favorable A:PHE248>
0

> <Favorable A:VAL251>
0

> <Favorable A:TRP252>
0

> <Favorable A:SER254>
0

> <Favorable A:GLU255>
0

> <Favorable A:ARG256>
0

> <Favorable A:LEU257>
0

> <Favorable A:GLU258>
0

> <Favorable A:GLU259>
0

> <Favorable A:LEU261>
0

> <Favorable A:ILE262>
0

> <Favorable A:ILE263>
0

> <Favorable A:SER265>
0

> <Favorable A:GLN266>
1

> <Favorable A:MET268>
0

> <Favorable A:GLY269>
0

> <Favorable A:TYR272>
0

> <Favorable A:PRO273>
0

> <Unfavorable A:ARG55>
0

> <Unfavorable A:PRO73>
0

> <Unfavorable A:PHE76>
0

> <Unfavorable A:GLU79>
0

> <Unfavorable A:ARG83>
0

> <Unfavorable A:THR86>
0

> <Unfavorable A:TRP89>
0

> <Unfavorable A:THR90>
0

> <Unfavorable A:ASN93>
0

> <Unfavorable A:TRP98>
0

> <Unfavorable A:ASN144>
0

> <Unfavorable A:SER155>
0

> <Unfavorable A:GLY158>
0

> <Unfavorable A:TYR159>
0

> <Unfavorable A:ASN162>
0

> <Unfavorable A:ASP168>
0

> <Unfavorable A:ASN171>
0

> <Unfavorable A:THR173>
0

> <Unfavorable A:ARG174>
0

> <Unfavorable A:SER183>
0

> <Unfavorable A:THR184>
0

> <Unfavorable A:PHE186>
0

> <Unfavorable A:SER244>
0

> <Unfavorable A:SER254>
0

> <Unfavorable A:GLU255>
0

> <Unfavorable A:SER265>
0

> <Unfavorable A:GLN266>
0

> <Unfavorable A:GLY269>
0

> <Charge A:ARG55>
0

> <Charge A:PHE76>
0

> <Charge A:GLU79>
0

> <Charge A:PHE82>
0

> <Charge A:ARG83>
0

> <Charge A:TRP89>
0

> <Charge A:HIS94>
0

> <Charge A:TRP98>
0

> <Charge A:TYR159>
0

> <Charge A:ARG161>
0

> <Charge A:LYS163>
0

> <Charge A:ASP168>
0

> <Charge A:PHE172>
0

> <Charge A:ARG174>
0

> <Charge A:PHE175>
0

> <Charge A:PHE188>
0

> <Charge A:PHE247>
0

> <Charge A:PHE248>
0

> <Hydrophobic A:LEU58>
0

> <Hydrophobic A:LEU61>
0

> <Hydrophobic A:ILE62>
0

> <Hydrophobic A:TRP66>
0

> <Hydrophobic A:VAL70>
0

> <Hydrophobic A:PRO73>
0

> <Hydrophobic A:ALA74>
0

> <Hydrophobic A:PHE76>
3

> <Hydrophobic A:ALA77>
0

> <Hydrophobic A:THR78>
0

> <Hydrophobic A:PHE82>
0

> <Hydrophobic A:ARG83>
0

> <Hydrophobic A:LEU85>
0

> <Hydrophobic A:TRP89>
0

> <Hydrophobic A:THR90>
0

> <Hydrophobic A:ASN93>
0

> <Hydrophobic A:HIS94>
0

> <Hydrophobic A:VAL97>
0

> <Hydrophobic A:TRP98>
0

> <Hydrophobic A:PHE140>
0

> <Hydrophobic A:LEU141>
0

> <Hydrophobic A:ILE148>
0

> <Hydrophobic A:ILE150>
0

> <Hydrophobic A:HIS151>
0

> <Hydrophobic A:ILE152>
0

> <Hydrophobic A:ALA154>
0

> <Hydrophobic A:SER155>
0

> <Hydrophobic A:ILE156>
0

> <Hydrophobic A:GLY158>
0

> <Hydrophobic A:TYR159>
0

> <Hydrophobic A:ARG160>
0

> <Hydrophobic A:ARG161>
0

> <Hydrophobic A:ASP168>
0

> <Hydrophobic A:ASN171>
0

> <Hydrophobic A:PHE172>
0

> <Hydrophobic A:ARG174>
0

> <Hydrophobic A:PHE175>
0

> <Hydrophobic A:LEU178>
0

> <Hydrophobic A:ILE179>
0

> <Hydrophobic A:VAL180>
0

> <Hydrophobic A:LEU181>
0

> <Hydrophobic A:PHE186>
0

> <Hydrophobic A:ILE187>
0

> <Hydrophobic A:PHE188>
0

> <Hydrophobic A:ILE189>
0

> <Hydrophobic A:PRO190>
0

> <Hydrophobic A:PHE191>
0

> <Hydrophobic A:TYR240>
0

> <Hydrophobic A:PHE243>
0

> <Hydrophobic A:PHE247>
0

> <Hydrophobic A:PHE248>
0

> <Hydrophobic A:VAL251>
0

> <Hydrophobic A:TRP252>
0

> <Hydrophobic A:SER254>
0

> <Hydrophobic A:LEU261>
0

> <Hydrophobic A:ILE262>
0

> <Hydrophobic A:ILE263>
0

> <Hydrophobic A:TYR272>
0

> <Hydrophobic A:PRO273>
0

> <HydrogenBond A:LYS6>
0

> <HydrogenBond A:ARG55>
0

> <HydrogenBond A:GLY64>
0

> <HydrogenBond A:SER65>
0

> <HydrogenBond A:TRP66>
0

> <HydrogenBond A:SER69>
1

> <HydrogenBond A:PRO73>
1

> <HydrogenBond A:ALA74>
0

> <HydrogenBond A:PHE76>
1

> <HydrogenBond A:ALA77>
0

> <HydrogenBond A:THR78>
0

> <HydrogenBond A:GLU79>
0

> <HydrogenBond A:PHE82>
0

> <HydrogenBond A:ARG83>
0

> <HydrogenBond A:LEU85>
0

> <HydrogenBond A:THR86>
0

> <HydrogenBond A:TRP89>
0

> <HydrogenBond A:THR90>
0

> <HydrogenBond A:ASN93>
0

> <HydrogenBond A:HIS94>
0

> <HydrogenBond A:SER96>
0

> <HydrogenBond A:TRP98>
0

> <HydrogenBond A:ASN144>
0

> <HydrogenBond A:HIS151>
0

> <HydrogenBond A:ILE152>
0

> <HydrogenBond A:ALA154>
0

> <HydrogenBond A:SER155>
0

> <HydrogenBond A:ILE156>
0

> <HydrogenBond A:GLY158>
0

> <HydrogenBond A:TYR159>
0

> <HydrogenBond A:ASN162>
0

> <HydrogenBond A:LYS163>
0

> <HydrogenBond A:SER167>
0

> <HydrogenBond A:ASP168>
0

> <HydrogenBond A:SER169>
0

> <HydrogenBond A:ASN171>
0

> <HydrogenBond A:PHE172>
0

> <HydrogenBond A:THR173>
0

> <HydrogenBond A:ARG174>
0

> <HydrogenBond A:PHE175>
0

> <HydrogenBond A:SER176>
0

> <HydrogenBond A:SER177>
0

> <HydrogenBond A:ILE179>
0

> <HydrogenBond A:VAL180>
0

> <HydrogenBond A:SER183>
0

> <HydrogenBond A:THR184>
0

> <HydrogenBond A:PHE186>
0

> <HydrogenBond A:ILE187>
0

> <HydrogenBond A:PRO190>
0

> <HydrogenBond A:TYR240>
0

> <HydrogenBond A:PHE243>
0

> <HydrogenBond A:SER244>
0

> <HydrogenBond A:PHE247>
0

> <HydrogenBond A:VAL251>
0

> <HydrogenBond A:SER254>
0

> <HydrogenBond A:GLU255>
0

> <HydrogenBond A:ARG256>
0

> <HydrogenBond A:LEU257>
0

> <HydrogenBond A:GLU258>
0

> <HydrogenBond A:GLU259>
0

> <HydrogenBond A:ILE262>
0

> <HydrogenBond A:SER265>
0

> <HydrogenBond A:GLN266>
1

> <HydrogenBond A:MET268>
0

> <HydrogenBond A:GLY269>
0

> <HydrogenBond A:PRO273>
0

> <Other A:SER69>
0

> <Other A:TRP89>
0

> <Other A:TYR159>
0

> <Other A:PHE172>
0

> <Other A:SER176>
0

> <Other A:SER265>
0

$$$$
373677
  SciTegic09122300493D

 64 64  0  0  0  0            999 V2000
   13.6760    4.6722  -12.0845 O   0  0  0  1  0  0
    9.9414    1.9838  -10.7981 O   0  0  0  1  0  0
   14.2339    0.3098  -10.4116 O   0  5  0  1  0  0
   10.9870   -1.0137  -10.2278 O   0  0  0  1  0  0
   11.7055    3.5317  -11.2853 C   0  0  0  1  0  0
   11.2720    4.5393  -10.1905 C   0  0  0  1  0  0
   11.0665    3.9944  -12.6281 C   0  0  0  1  0  0
   13.2130    3.5413  -11.4625 C   0  0  0  1  0  0
   11.1217    2.1512  -10.8488 C   0  0  0  1  0  0
   14.0458    2.5140  -11.1583 C   0  0  0  1  0  0
   12.0355    1.0879  -10.4047 C   0  0  0  1  0  0
   13.4744    1.2431  -10.6421 C   0  0  0  1  0  0
   11.7359    4.2819   -8.7749 C   0  0  0  1  0  0
   10.4381    2.9665  -13.5203 C   0  0  0  1  0  0
   15.5658    2.5511  -11.1817 C   0  0  0  1  0  0
   11.5202   -0.0915   -9.6704 C   0  0  0  1  0  0
   11.6024   -0.0189   -8.1215 C   0  0  0  1  0  0
   12.2219    5.1937   -7.9118 C   0  0  0  1  0  0
    9.1146    2.9394  -13.7292 C   0  0  0  1  0  0
   16.2824    3.8831  -11.2203 C   0  0  0  1  0  0
   13.0606    0.0600   -7.6435 C   0  0  0  1  0  0
   10.8910   -1.2086   -7.4645 C   0  0  0  1  0  0
   12.0802    6.6849   -8.0915 C   0  0  0  1  0  0
   12.7039    4.8147   -6.5340 C   0  0  0  1  0  0
    8.4522    2.0547  -14.7217 C   0  0  0  1  0  0
    8.1069    3.5484  -12.8030 C   0  0  0  1  0  0
   15.9523    5.0683  -10.6656 C   0  0  0  1  0  0
   14.9122    5.2987   -9.5991 C   0  0  0  1  0  0
   16.6967    6.3225  -11.0174 C   0  0  0  1  0  0
   14.5890    4.5811  -12.3103 H   0  0
   10.1852    4.5777  -10.1776 H   0  0
   11.5958    5.5324  -10.5001 H   0  0
   11.7881    4.5128  -13.2539 H   0  0
   10.3349    4.7775  -12.4317 H   0  0
   11.7636    3.2472   -8.4888 H   0  0
   11.1112    2.3243  -14.0579 H   0  0
   15.8702    1.9696  -12.0521 H   0  0
   15.9593    1.9974  -10.3272 H   0  0
   11.0879    0.8933   -7.8222 H   0  0
   17.1266    3.8623  -11.8884 H   0  0
   13.5349    0.9950   -7.9406 H   0  0
   13.6565   -0.7490   -8.0699 H   0  0
   13.1289   -0.0133   -6.5587 H   0  0
   11.4567   -2.1234   -7.6269 H   0  0
    9.8858   -1.3514   -7.8586 H   0  0
   10.8123   -1.0706   -6.3864 H   0  0
   11.3736    6.9334   -8.8822 H   0  0
   13.0411    7.1348   -8.3316 H   0  0
   11.7096    7.1491   -7.1793 H   0  0
   13.7894    4.9005   -6.4798 H   0  0
   12.4336    3.7863   -6.2917 H   0  0
   12.2732    5.4633   -5.7709 H   0  0
    9.1190    1.2749  -15.0545 H   0  0
    8.1860    2.6398  -15.5664 H   0  0
    7.5110    1.6790  -14.3531 H   0  0
    7.7046    4.4577  -13.2346 H   0  0
    8.5671    3.7642  -11.8423 H   0  0
    7.2753    2.8719  -12.6149 H   0  0
   15.2860    5.9395   -8.8055 H   0  0
   14.5896    4.3572   -9.1562 H   0  0
   14.0466    5.8149  -10.0112 H   0  0
   17.4446    6.1329  -11.7862 H   0  0
   17.1974    6.7113  -10.1360 H   0  0
   16.0138    7.0815  -11.3962 H   0  0
  1  8  1  0
  2  9  2  0
  3 12  1  0
  4 16  2  0
  5  6  1  0
  5  7  1  0
  5  8  1  0
  5  9  1  0
  6 13  1  0
  7 14  1  0
  8 10  2  0
  9 11  1  0
 10 12  1  0
 10 15  1  0
 11 12  2  0
 11 16  1  0
 13 18  2  0
 14 19  2  0
 15 20  1  0
 16 17  1  0
 17 21  1  0
 17 22  1  0
 18 23  1  0
 18 24  1  0
 19 25  1  0
 19 26  1  0
 20 27  2  0
 27 28  1  0
 27 29  1  0
  1 30  1  0
  6 31  1  0
  6 32  1  0
  7 33  1  0
  7 34  1  0
 13 35  1  0
 14 36  1  0
 15 37  1  0
 15 38  1  0
 17 39  1  0
 20 40  1  0
 21 41  1  0
 21 42  1  0
 21 43  1  0
 22 44  1  0
 22 45  1  0
 22 46  1  0
 23 47  1  0
 23 48  1  0
 23 49  1  0
 24 50  1  0
 24 51  1  0
 24 52  1  0
 25 53  1  0
 25 54  1  0
 25 55  1  0
 26 56  1  0
 26 57  1  0
 26 58  1  0
 28 59  1  0
 28 60  1  0
 28 61  1  0
 29 62  1  0
 29 63  1  0
 29 64  1  0
M  CHG  1   3  -1
M  END
> <Name>
373677

> <Binding Energy>
-12.9572

> <Ligand Energy>
142.1596

> <Protein Energy>
-7801.1566

> <Complex Energy>
-7671.9543

> <Complex Entropy>
-31.4855

> <Protein Entropy>
-31.4717

> <Ligand Entropy>
-20.0723

> <Entropic Energy>
20.0584

> <AbsoluteEnergy>
50.509

> <ConfNumber>
23

> <Ionization pH>
7.5

> <IonizationIndex>
1

> <MOL_NUMBER>
765

> <NumberOfIonizations>
1

> <NumberOfStereoisomers>
1

> <NumberOfTautomers>
3

> <PUBCHEM_ATOM_DEF_STEREO_COUNT>
0

> <PUBCHEM_ATOM_UDEF_STEREO_COUNT>
0

> <PUBCHEM_BOND_DEF_STEREO_COUNT>
0

> <PUBCHEM_BOND_UDEF_STEREO_COUNT>
0

> <PUBCHEM_CACTVS_COMPLEXITY>
797

> <PUBCHEM_CACTVS_HBOND_ACCEPTOR>
4

> <PUBCHEM_CACTVS_HBOND_DONOR>
2

> <PUBCHEM_CACTVS_ROTATABLE_BOND>
8

> <PUBCHEM_CACTVS_SUBSKEYS>
AAADcfB4OAAAAAAAAAAAAAAAAAAAAAAAAAAgAAAAAAAAAAAAAAAAGgAACAAADwSAgAACAAAAAgCIAqBSAAAAAAAgIAAACAEAAEgIBBYIAQAAUAAEoAAIkQOIzOAPAAAAAAAAAAAAAAAAAAAAAAAAAAAAAA==

> <PUBCHEM_CACTVS_TAUTO_COUNT>
19

> <PUBCHEM_CACTVS_TPSA>
74.6

> <PUBCHEM_COMPONENT_COUNT>
1

> <PUBCHEM_COMPOUND_CANONICALIZED>
1

> <PUBCHEM_COMPOUND_CID>
373677

> <PUBCHEM_COORDINATE_TYPE>
1
5
255

> <PUBCHEM_EXACT_MASS>
400.26135963

> <PUBCHEM_HEAVY_ATOM_COUNT>
29

> <PUBCHEM_ISOTOPIC_ATOM_COUNT>
0

> <PUBCHEM_IUPAC_CAS_NAME>
3,5-dihydroxy-4,6,6-tris(3-methylbut-2-enyl)-2-(2-methyl-1-oxopropyl)-1-cyclohexa-2,4-dienone

> <PUBCHEM_IUPAC_INCHI>
InChI=1S/C25H36O4/c1-15(2)9-10-19-22(27)20(21(26)18(7)8)24(29)25(23(19)28,13-11-16(3)4)14-12-17(5)6/h9,11-12,18,27-28H,10,13-14H2,1-8H3

> <PUBCHEM_IUPAC_INCHIKEY>
UNCDMWKTFLUPHZ-UHFFFAOYSA-N

> <PUBCHEM_IUPAC_NAME>
3,5-dihydroxy-4,6,6-tris(3-methylbut-2-enyl)-2-(2-methylpropanoyl)cyclohexa-2,4-dien-1-one

> <PUBCHEM_IUPAC_NAME_MARKUP>
3,5-dihydroxy-4,6,6-tris(3-methylbut-2-enyl)-2-(2-methylpropanoyl)cyclohexa-2,4-dien-1-one

> <PUBCHEM_IUPAC_OPENEYE_NAME>
3,5-dihydroxy-4,6,6-tris(3-methylbut-2-enyl)-2-(2-methylpropanoyl)cyclohexa-2,4-dien-1-one

> <PUBCHEM_IUPAC_SYSTEMATIC_NAME>
4,6,6-tris(3-methylbut-2-enyl)-2-(2-methylpropanoyl)-3,5-bis(oxidanyl)cyclohexa-2,4-dien-1-one

> <PUBCHEM_IUPAC_TRADITIONAL_NAME>
3,5-dihydroxy-2-isobutyryl-4,6,6-tris(3-methylbut-2-enyl)cyclohexa-2,4-dien-1-one

> <PUBCHEM_MOLECULAR_FORMULA>
C25H36O4

> <PUBCHEM_MOLECULAR_WEIGHT>
400.5

> <PUBCHEM_MONOISOTOPIC_WEIGHT>
400.26135963

> <PUBCHEM_OPENEYE_CAN_SMILES>
CC(C)C(=O)C1=C(C(=C(C(C1=O)(CC=C(C)C)CC=C(C)C)O)CC=C(C)C)O

> <PUBCHEM_OPENEYE_ISO_SMILES>
CC(C)C(=O)C1=C(C(=C(C(C1=O)(CC=C(C)C)CC=C(C)C)O)CC=C(C)C)O

> <PUBCHEM_TOTAL_CHARGE>
0

> <PUBCHEM_XLOGP3_AA>
6.5

> <RelativeEnergy>
4.02993

> <StereoisomerIndex>
1

> <TautomerIndex>
2

> <POSE_NUMBER>
1

> <LibDockScore>
89.4525

> <HotSpots>
10.81,8.27,-8.46,A,35,23
7.61,3.27,-13.26,A,25,26
16.61,6.47,-11.46,A,30,29

> <-In-Situ Starting Energy>
-1779.17585

> <-In-Situ Final Energy>
-66.5953263

> <In-Situ Gradient>
0.0217006071

> <Favorable Total>
15

> <Unfavorable Total>
0

> <Charge Total>
0

> <Hydrophobic Total>
14

> <HydrogenBond Total>
1

> <Other Total>
0

> <Favorable A:LYS6>
0

> <Favorable A:ARG55>
0

> <Favorable A:LEU58>
0

> <Favorable A:LEU61>
1

> <Favorable A:ILE62>
0

> <Favorable A:GLY64>
0

> <Favorable A:SER65>
0

> <Favorable A:TRP66>
0

> <Favorable A:SER69>
0

> <Favorable A:VAL70>
0

> <Favorable A:PRO73>
0

> <Favorable A:ALA74>
0

> <Favorable A:PHE76>
1

> <Favorable A:ALA77>
0

> <Favorable A:THR78>
0

> <Favorable A:GLU79>
0

> <Favorable A:PHE82>
1

> <Favorable A:ARG83>
0

> <Favorable A:LEU85>
2

> <Favorable A:THR86>
0

> <Favorable A:TRP89>
5

> <Favorable A:THR90>
0

> <Favorable A:ASN93>
0

> <Favorable A:HIS94>
0

> <Favorable A:SER96>
0

> <Favorable A:VAL97>
0

> <Favorable A:TRP98>
0

> <Favorable A:PHE140>
0

> <Favorable A:LEU141>
0

> <Favorable A:ASN144>
0

> <Favorable A:ILE148>
0

> <Favorable A:ILE150>
0

> <Favorable A:HIS151>
0

> <Favorable A:ILE152>
0

> <Favorable A:ALA154>
0

> <Favorable A:SER155>
0

> <Favorable A:ILE156>
0

> <Favorable A:GLY158>
0

> <Favorable A:TYR159>
0

> <Favorable A:ARG160>
0

> <Favorable A:ARG161>
0

> <Favorable A:ASN162>
0

> <Favorable A:LYS163>
0

> <Favorable A:SER167>
0

> <Favorable A:ASP168>
0

> <Favorable A:SER169>
0

> <Favorable A:ASN171>
0

> <Favorable A:PHE172>
0

> <Favorable A:THR173>
0

> <Favorable A:ARG174>
0

> <Favorable A:PHE175>
0

> <Favorable A:SER176>
0

> <Favorable A:SER177>
0

> <Favorable A:LEU178>
0

> <Favorable A:ILE179>
2

> <Favorable A:VAL180>
2

> <Favorable A:LEU181>
0

> <Favorable A:SER183>
0

> <Favorable A:THR184>
0

> <Favorable A:PHE186>
0

> <Favorable A:ILE187>
0

> <Favorable A:PHE188>
0

> <Favorable A:ILE189>
0

> <Favorable A:PRO190>
0

> <Favorable A:PHE191>
0

> <Favorable A:TYR240>
0

> <Favorable A:PHE243>
0

> <Favorable A:SER244>
0

> <Favorable A:PHE247>
0

> <Favorable A:PHE248>
0

> <Favorable A:VAL251>
0

> <Favorable A:TRP252>
0

> <Favorable A:SER254>
0

> <Favorable A:GLU255>
0

> <Favorable A:ARG256>
0

> <Favorable A:LEU257>
0

> <Favorable A:GLU258>
0

> <Favorable A:GLU259>
0

> <Favorable A:LEU261>
0

> <Favorable A:ILE262>
0

> <Favorable A:ILE263>
0

> <Favorable A:SER265>
0

> <Favorable A:GLN266>
1

> <Favorable A:MET268>
0

> <Favorable A:GLY269>
0

> <Favorable A:TYR272>
0

> <Favorable A:PRO273>
0

> <Unfavorable A:ARG55>
0

> <Unfavorable A:PRO73>
0

> <Unfavorable A:PHE76>
0

> <Unfavorable A:GLU79>
0

> <Unfavorable A:ARG83>
0

> <Unfavorable A:THR86>
0

> <Unfavorable A:TRP89>
0

> <Unfavorable A:THR90>
0

> <Unfavorable A:ASN93>
0

> <Unfavorable A:TRP98>
0

> <Unfavorable A:ASN144>
0

> <Unfavorable A:SER155>
0

> <Unfavorable A:GLY158>
0

> <Unfavorable A:TYR159>
0

> <Unfavorable A:ASN162>
0

> <Unfavorable A:ASP168>
0

> <Unfavorable A:ASN171>
0

> <Unfavorable A:THR173>
0

> <Unfavorable A:ARG174>
0

> <Unfavorable A:SER183>
0

> <Unfavorable A:THR184>
0

> <Unfavorable A:PHE186>
0

> <Unfavorable A:SER244>
0

> <Unfavorable A:SER254>
0

> <Unfavorable A:GLU255>
0

> <Unfavorable A:SER265>
0

> <Unfavorable A:GLN266>
0

> <Unfavorable A:GLY269>
0

> <Charge A:ARG55>
0

> <Charge A:PHE76>
0

> <Charge A:GLU79>
0

> <Charge A:PHE82>
0

> <Charge A:ARG83>
0

> <Charge A:TRP89>
0

> <Charge A:HIS94>
0

> <Charge A:TRP98>
0

> <Charge A:TYR159>
0

> <Charge A:ARG161>
0

> <Charge A:LYS163>
0

> <Charge A:ASP168>
0

> <Charge A:PHE172>
0

> <Charge A:ARG174>
0

> <Charge A:PHE175>
0

> <Charge A:PHE188>
0

> <Charge A:PHE247>
0

> <Charge A:PHE248>
0

> <Hydrophobic A:LEU58>
0

> <Hydrophobic A:LEU61>
1

> <Hydrophobic A:ILE62>
0

> <Hydrophobic A:TRP66>
0

> <Hydrophobic A:VAL70>
0

> <Hydrophobic A:PRO73>
0

> <Hydrophobic A:ALA74>
0

> <Hydrophobic A:PHE76>
1

> <Hydrophobic A:ALA77>
0

> <Hydrophobic A:THR78>
0

> <Hydrophobic A:PHE82>
1

> <Hydrophobic A:ARG83>
0

> <Hydrophobic A:LEU85>
2

> <Hydrophobic A:TRP89>
5

> <Hydrophobic A:THR90>
0

> <Hydrophobic A:ASN93>
0

> <Hydrophobic A:HIS94>
0

> <Hydrophobic A:VAL97>
0

> <Hydrophobic A:TRP98>
0

> <Hydrophobic A:PHE140>
0

> <Hydrophobic A:LEU141>
0

> <Hydrophobic A:ILE148>
0

> <Hydrophobic A:ILE150>
0

> <Hydrophobic A:HIS151>
0

> <Hydrophobic A:ILE152>
0

> <Hydrophobic A:ALA154>
0

> <Hydrophobic A:SER155>
0

> <Hydrophobic A:ILE156>
0

> <Hydrophobic A:GLY158>
0

> <Hydrophobic A:TYR159>
0

> <Hydrophobic A:ARG160>
0

> <Hydrophobic A:ARG161>
0

> <Hydrophobic A:ASP168>
0

> <Hydrophobic A:ASN171>
0

> <Hydrophobic A:PHE172>
0

> <Hydrophobic A:ARG174>
0

> <Hydrophobic A:PHE175>
0

> <Hydrophobic A:LEU178>
0

> <Hydrophobic A:ILE179>
2

> <Hydrophobic A:VAL180>
2

> <Hydrophobic A:LEU181>
0

> <Hydrophobic A:PHE186>
0

> <Hydrophobic A:ILE187>
0

> <Hydrophobic A:PHE188>
0

> <Hydrophobic A:ILE189>
0

> <Hydrophobic A:PRO190>
0

> <Hydrophobic A:PHE191>
0

> <Hydrophobic A:TYR240>
0

> <Hydrophobic A:PHE243>
0

> <Hydrophobic A:PHE247>
0

> <Hydrophobic A:PHE248>
0

> <Hydrophobic A:VAL251>
0

> <Hydrophobic A:TRP252>
0

> <Hydrophobic A:SER254>
0

> <Hydrophobic A:LEU261>
0

> <Hydrophobic A:ILE262>
0

> <Hydrophobic A:ILE263>
0

> <Hydrophobic A:TYR272>
0

> <Hydrophobic A:PRO273>
0

> <HydrogenBond A:LYS6>
0

> <HydrogenBond A:ARG55>
0

> <HydrogenBond A:GLY64>
0

> <HydrogenBond A:SER65>
0

> <HydrogenBond A:TRP66>
0

> <HydrogenBond A:SER69>
0

> <HydrogenBond A:PRO73>
0

> <HydrogenBond A:ALA74>
0

> <HydrogenBond A:PHE76>
0

> <HydrogenBond A:ALA77>
0

> <HydrogenBond A:THR78>
0

> <HydrogenBond A:GLU79>
0

> <HydrogenBond A:PHE82>
0

> <HydrogenBond A:ARG83>
0

> <HydrogenBond A:LEU85>
0

> <HydrogenBond A:THR86>
0

> <HydrogenBond A:TRP89>
0

> <HydrogenBond A:THR90>
0

> <HydrogenBond A:ASN93>
0

> <HydrogenBond A:HIS94>
0

> <HydrogenBond A:SER96>
0

> <HydrogenBond A:TRP98>
0

> <HydrogenBond A:ASN144>
0

> <HydrogenBond A:HIS151>
0

> <HydrogenBond A:ILE152>
0

> <HydrogenBond A:ALA154>
0

> <HydrogenBond A:SER155>
0

> <HydrogenBond A:ILE156>
0

> <HydrogenBond A:GLY158>
0

> <HydrogenBond A:TYR159>
0

> <HydrogenBond A:ASN162>
0

> <HydrogenBond A:LYS163>
0

> <HydrogenBond A:SER167>
0

> <HydrogenBond A:ASP168>
0

> <HydrogenBond A:SER169>
0

> <HydrogenBond A:ASN171>
0

> <HydrogenBond A:PHE172>
0

> <HydrogenBond A:THR173>
0

> <HydrogenBond A:ARG174>
0

> <HydrogenBond A:PHE175>
0

> <HydrogenBond A:SER176>
0

> <HydrogenBond A:SER177>
0

> <HydrogenBond A:ILE179>
0

> <HydrogenBond A:VAL180>
0

> <HydrogenBond A:SER183>
0

> <HydrogenBond A:THR184>
0

> <HydrogenBond A:PHE186>
0

> <HydrogenBond A:ILE187>
0

> <HydrogenBond A:PRO190>
0

> <HydrogenBond A:TYR240>
0

> <HydrogenBond A:PHE243>
0

> <HydrogenBond A:SER244>
0

> <HydrogenBond A:PHE247>
0

> <HydrogenBond A:VAL251>
0

> <HydrogenBond A:SER254>
0

> <HydrogenBond A:GLU255>
0

> <HydrogenBond A:ARG256>
0

> <HydrogenBond A:LEU257>
0

> <HydrogenBond A:GLU258>
0

> <HydrogenBond A:GLU259>
0

> <HydrogenBond A:ILE262>
0

> <HydrogenBond A:SER265>
0

> <HydrogenBond A:GLN266>
1

> <HydrogenBond A:MET268>
0

> <HydrogenBond A:GLY269>
0

> <HydrogenBond A:PRO273>
0

> <Other A:SER69>
0

> <Other A:TRP89>
0

> <Other A:TYR159>
0

> <Other A:PHE172>
0

> <Other A:SER176>
0

> <Other A:SER265>
0

$$$$
445238
  SciTegic09122300493D

 27 27  0  0  0  0            999 V2000
    6.2780    2.4414    1.7366 O   0  0  0  1  0  0
    4.6575    1.3143   -0.4721 O   0  0  0  1  0  0
    7.9697   -0.2178    0.3053 O   0  0  0  1  0  0
    6.8599    2.9790   -1.0386 O   0  0  0  1  0  0
    8.5499    1.9923    2.0436 O   0  0  0  1  0  0
    5.9201    0.7000    3.9972 O   0  0  0  1  0  0
    5.6699    0.5913    0.2379 C   0  0  1  1  0  0
    7.0914    0.6668   -0.3737 C   0  0  1  1  0  0
    5.6995    1.1476    1.6798 C   0  0  1  1  0  0
    7.6265    2.1037   -0.2342 C   0  0  2  1  0  0
    7.5809    2.6138    1.2182 C   0  0  1  1  0  0
    6.2875    0.1847    2.7289 C   0  0  0  1  0  0
    9.4343    2.8492    2.7390 C   0  0  0  1  0  0
    4.8267    1.2466   -1.4131 H   0  0
    7.7289   -1.1303    0.1710 H   0  0
    5.9653    2.9928   -0.7044 H   0  0
    6.3605    0.2604    4.7363 H   0  0
    5.3474   -0.4496    0.2636 H   0  0
    7.0954    0.4058   -1.4387 H   0  0
    4.6686    1.3050    1.9780 H   0  0
    8.6508    2.1501   -0.6015 H   0  0
    7.7635    3.6836    1.1927 H   0  0
    5.8580   -0.8103    2.6137 H   0  0
    7.3687    0.0696    2.6348 H   0  0
    8.8883    3.5659    3.3537 H   0  0
   10.0718    3.3849    2.0424 H   0  0
   10.1049    2.2749    3.3731 H   0  0
  1  9  1  0
  1 11  1  0
  2  7  1  0
  3  8  1  0
  4 10  1  0
  5 11  1  0
  5 13  1  0
  6 12  1  0
  7  8  1  0
  7  9  1  0
  8 10  1  0
  9 12  1  0
 10 11  1  0
  2 14  1  0
  3 15  1  0
  4 16  1  0
  6 17  1  0
  7 18  1  0
  8 19  1  0
  9 20  1  0
 10 21  1  0
 11 22  1  0
 12 23  1  0
 12 24  1  0
 13 25  1  0
 13 26  1  0
 13 27  1  0
M  END
> <Name>
445238

> <Binding Energy>
-63.1276

> <Ligand Energy>
45.9502

> <Protein Energy>
-7801.1566

> <Complex Energy>
-7818.3341

> <Complex Entropy>
-31.4768

> <Protein Entropy>
-31.4717

> <Ligand Entropy>
-17.9334

> <Entropic Energy>
17.9283

> <AbsoluteEnergy>
19.5917

> <ConfNumber>
13

> <IonizationIndex>
1

> <MOL_NUMBER>
772

> <NumberOfIonizations>
1

> <NumberOfStereoisomers>
1

> <NumberOfTautomers>
1

> <PUBCHEM_ATOM_DEF_STEREO_COUNT>
5

> <PUBCHEM_ATOM_UDEF_STEREO_COUNT>
0

> <PUBCHEM_BONDANNOTATIONS>
7  2  6
8  3  5
10  4  6
11  5  5
9  12  5

> <PUBCHEM_BOND_DEF_STEREO_COUNT>
0

> <PUBCHEM_BOND_UDEF_STEREO_COUNT>
0

> <PUBCHEM_CACTVS_COMPLEXITY>
163

> <PUBCHEM_CACTVS_HBOND_ACCEPTOR>
6

> <PUBCHEM_CACTVS_HBOND_DONOR>
4

> <PUBCHEM_CACTVS_ROTATABLE_BOND>
2

> <PUBCHEM_CACTVS_SUBSKEYS>
AAADccBgOAAAAAAAAAAAAAAAAAAAAAAAAAAkAAAAAAAAAAAAAAAAGgAACAAACBSwgAMCCAAABgAAAAAAAAAAAAAAAAAAAAAAAAAREAIAAAAiQAAFAAAHAAHAYAwAAAAAAAAAAAAAAAAAAAAAAAAAAAAAAA==

> <PUBCHEM_CACTVS_TAUTO_COUNT>
1

> <PUBCHEM_CACTVS_TPSA>
99.4

> <PUBCHEM_COMPONENT_COUNT>
1

> <PUBCHEM_COMPOUND_CANONICALIZED>
1

> <PUBCHEM_COMPOUND_CID>
445238

> <PUBCHEM_COORDINATE_TYPE>
1
5
255

> <PUBCHEM_EXACT_MASS>
194.07903816

> <PUBCHEM_HEAVY_ATOM_COUNT>
13

> <PUBCHEM_ISOTOPIC_ATOM_COUNT>
0

> <PUBCHEM_IUPAC_CAS_NAME>
(2R,3S,4S,5R,6R)-2-(hydroxymethyl)-6-methoxyoxane-3,4,5-triol

> <PUBCHEM_IUPAC_INCHI>
InChI=1S/C7H14O6/c1-12-7-6(11)5(10)4(9)3(2-8)13-7/h3-11H,2H2,1H3/t3-,4-,5+,6-,7-/m1/s1

> <PUBCHEM_IUPAC_INCHIKEY>
HOVAGTYPODGVJG-XUUWZHRGSA-N

> <PUBCHEM_IUPAC_NAME>
(2R,3S,4S,5R,6R)-2-(hydroxymethyl)-6-methoxyoxane-3,4,5-triol

> <PUBCHEM_IUPAC_NAME_MARKUP>
(2<I>R</I>,3<I>S</I>,4<I>S</I>,5<I>R</I>,6<I>R</I>)-2-(hydroxymethyl)-6-methoxyoxane-3,4,5-triol

> <PUBCHEM_IUPAC_OPENEYE_NAME>
(2R,3S,4S,5R,6R)-2-(hydroxymethyl)-6-methoxy-tetrahydropyran-3,4,5-triol

> <PUBCHEM_IUPAC_SYSTEMATIC_NAME>
(2R,3S,4S,5R,6R)-2-(hydroxymethyl)-6-methoxy-oxane-3,4,5-triol

> <PUBCHEM_IUPAC_TRADITIONAL_NAME>
(2R,3R,4S,5S,6R)-2-methoxy-6-methylol-tetrahydropyran-3,4,5-triol

> <PUBCHEM_MOLECULAR_FORMULA>
C7H14O6

> <PUBCHEM_MOLECULAR_WEIGHT>
194.18

> <PUBCHEM_MONOISOTOPIC_WEIGHT>
194.07903816

> <PUBCHEM_OPENEYE_CAN_SMILES>
COC1C(C(C(C(O1)CO)O)O)O

> <PUBCHEM_OPENEYE_ISO_SMILES>
CO[C@H]1[C@@H]([C@H]([C@@H]([C@H](O1)CO)O)O)O

> <PUBCHEM_TOTAL_CHARGE>
0

> <PUBCHEM_XLOGP3>
-2.2

> <RelativeEnergy>
6.6108

> <StereoisomerIndex>
1

> <TautomerIndex>
1

> <POSE_NUMBER>
1

> <LibDockScore>
74.8036

> <HotSpots>
7.61,2.87,-1.05,A,58,8
6.01,0.67,0.55,A,70,12
9.21,2.67,2.54,A,84,13

> <-In-Situ Starting Energy>
-47.9011584

> <-In-Situ Final Energy>
13.4991805

> <In-Situ Gradient>
0.0008645227568

> <Favorable Total>
3

> <Unfavorable Total>
0

> <Charge Total>
0

> <Hydrophobic Total>
0

> <HydrogenBond Total>
3

> <Other Total>
0

> <Favorable A:LYS6>
0

> <Favorable A:ARG55>
1

> <Favorable A:LEU58>
0

> <Favorable A:LEU61>
0

> <Favorable A:ILE62>
0

> <Favorable A:GLY64>
0

> <Favorable A:SER65>
0

> <Favorable A:TRP66>
0

> <Favorable A:SER69>
0

> <Favorable A:VAL70>
0

> <Favorable A:PRO73>
0

> <Favorable A:ALA74>
0

> <Favorable A:PHE76>
0

> <Favorable A:ALA77>
0

> <Favorable A:THR78>
0

> <Favorable A:GLU79>
0

> <Favorable A:PHE82>
0

> <Favorable A:ARG83>
0

> <Favorable A:LEU85>
0

> <Favorable A:THR86>
0

> <Favorable A:TRP89>
0

> <Favorable A:THR90>
0

> <Favorable A:ASN93>
0

> <Favorable A:HIS94>
0

> <Favorable A:SER96>
0

> <Favorable A:VAL97>
0

> <Favorable A:TRP98>
0

> <Favorable A:PHE140>
0

> <Favorable A:LEU141>
0

> <Favorable A:ASN144>
0

> <Favorable A:ILE148>
0

> <Favorable A:ILE150>
0

> <Favorable A:HIS151>
0

> <Favorable A:ILE152>
0

> <Favorable A:ALA154>
0

> <Favorable A:SER155>
0

> <Favorable A:ILE156>
0

> <Favorable A:GLY158>
0

> <Favorable A:TYR159>
0

> <Favorable A:ARG160>
0

> <Favorable A:ARG161>
0

> <Favorable A:ASN162>
0

> <Favorable A:LYS163>
0

> <Favorable A:SER167>
0

> <Favorable A:ASP168>
0

> <Favorable A:SER169>
0

> <Favorable A:ASN171>
0

> <Favorable A:PHE172>
0

> <Favorable A:THR173>
0

> <Favorable A:ARG174>
0

> <Favorable A:PHE175>
0

> <Favorable A:SER176>
0

> <Favorable A:SER177>
0

> <Favorable A:LEU178>
0

> <Favorable A:ILE179>
0

> <Favorable A:VAL180>
0

> <Favorable A:LEU181>
0

> <Favorable A:SER183>
0

> <Favorable A:THR184>
0

> <Favorable A:PHE186>
0

> <Favorable A:ILE187>
0

> <Favorable A:PHE188>
0

> <Favorable A:ILE189>
0

> <Favorable A:PRO190>
0

> <Favorable A:PHE191>
0

> <Favorable A:TYR240>
1

> <Favorable A:PHE243>
0

> <Favorable A:SER244>
1

> <Favorable A:PHE247>
0

> <Favorable A:PHE248>
0

> <Favorable A:VAL251>
0

> <Favorable A:TRP252>
0

> <Favorable A:SER254>
0

> <Favorable A:GLU255>
0

> <Favorable A:ARG256>
0

> <Favorable A:LEU257>
0

> <Favorable A:GLU258>
0

> <Favorable A:GLU259>
0

> <Favorable A:LEU261>
0

> <Favorable A:ILE262>
0

> <Favorable A:ILE263>
0

> <Favorable A:SER265>
0

> <Favorable A:GLN266>
0

> <Favorable A:MET268>
0

> <Favorable A:GLY269>
0

> <Favorable A:TYR272>
0

> <Favorable A:PRO273>
0

> <Unfavorable A:ARG55>
0

> <Unfavorable A:PRO73>
0

> <Unfavorable A:PHE76>
0

> <Unfavorable A:GLU79>
0

> <Unfavorable A:ARG83>
0

> <Unfavorable A:THR86>
0

> <Unfavorable A:TRP89>
0

> <Unfavorable A:THR90>
0

> <Unfavorable A:ASN93>
0

> <Unfavorable A:TRP98>
0

> <Unfavorable A:ASN144>
0

> <Unfavorable A:SER155>
0

> <Unfavorable A:GLY158>
0

> <Unfavorable A:TYR159>
0

> <Unfavorable A:ASN162>
0

> <Unfavorable A:ASP168>
0

> <Unfavorable A:ASN171>
0

> <Unfavorable A:THR173>
0

> <Unfavorable A:ARG174>
0

> <Unfavorable A:SER183>
0

> <Unfavorable A:THR184>
0

> <Unfavorable A:PHE186>
0

> <Unfavorable A:SER244>
0

> <Unfavorable A:SER254>
0

> <Unfavorable A:GLU255>
0

> <Unfavorable A:SER265>
0

> <Unfavorable A:GLN266>
0

> <Unfavorable A:GLY269>
0

> <Charge A:ARG55>
0

> <Charge A:PHE76>
0

> <Charge A:GLU79>
0

> <Charge A:PHE82>
0

> <Charge A:ARG83>
0

> <Charge A:TRP89>
0

> <Charge A:HIS94>
0

> <Charge A:TRP98>
0

> <Charge A:TYR159>
0

> <Charge A:ARG161>
0

> <Charge A:LYS163>
0

> <Charge A:ASP168>
0

> <Charge A:PHE172>
0

> <Charge A:ARG174>
0

> <Charge A:PHE175>
0

> <Charge A:PHE188>
0

> <Charge A:PHE247>
0

> <Charge A:PHE248>
0

> <Hydrophobic A:LEU58>
0

> <Hydrophobic A:LEU61>
0

> <Hydrophobic A:ILE62>
0

> <Hydrophobic A:TRP66>
0

> <Hydrophobic A:VAL70>
0

> <Hydrophobic A:PRO73>
0

> <Hydrophobic A:ALA74>
0

> <Hydrophobic A:PHE76>
0

> <Hydrophobic A:ALA77>
0

> <Hydrophobic A:THR78>
0

> <Hydrophobic A:PHE82>
0

> <Hydrophobic A:ARG83>
0

> <Hydrophobic A:LEU85>
0

> <Hydrophobic A:TRP89>
0

> <Hydrophobic A:THR90>
0

> <Hydrophobic A:ASN93>
0

> <Hydrophobic A:HIS94>
0

> <Hydrophobic A:VAL97>
0

> <Hydrophobic A:TRP98>
0

> <Hydrophobic A:PHE140>
0

> <Hydrophobic A:LEU141>
0

> <Hydrophobic A:ILE148>
0

> <Hydrophobic A:ILE150>
0

> <Hydrophobic A:HIS151>
0

> <Hydrophobic A:ILE152>
0

> <Hydrophobic A:ALA154>
0

> <Hydrophobic A:SER155>
0

> <Hydrophobic A:ILE156>
0

> <Hydrophobic A:GLY158>
0

> <Hydrophobic A:TYR159>
0

> <Hydrophobic A:ARG160>
0

> <Hydrophobic A:ARG161>
0

> <Hydrophobic A:ASP168>
0

> <Hydrophobic A:ASN171>
0

> <Hydrophobic A:PHE172>
0

> <Hydrophobic A:ARG174>
0

> <Hydrophobic A:PHE175>
0

> <Hydrophobic A:LEU178>
0

> <Hydrophobic A:ILE179>
0

> <Hydrophobic A:VAL180>
0

> <Hydrophobic A:LEU181>
0

> <Hydrophobic A:PHE186>
0

> <Hydrophobic A:ILE187>
0

> <Hydrophobic A:PHE188>
0

> <Hydrophobic A:ILE189>
0

> <Hydrophobic A:PRO190>
0

> <Hydrophobic A:PHE191>
0

> <Hydrophobic A:TYR240>
0

> <Hydrophobic A:PHE243>
0

> <Hydrophobic A:PHE247>
0

> <Hydrophobic A:PHE248>
0

> <Hydrophobic A:VAL251>
0

> <Hydrophobic A:TRP252>
0

> <Hydrophobic A:SER254>
0

> <Hydrophobic A:LEU261>
0

> <Hydrophobic A:ILE262>
0

> <Hydrophobic A:ILE263>
0

> <Hydrophobic A:TYR272>
0

> <Hydrophobic A:PRO273>
0

> <HydrogenBond A:LYS6>
0

> <HydrogenBond A:ARG55>
1

> <HydrogenBond A:GLY64>
0

> <HydrogenBond A:SER65>
0

> <HydrogenBond A:TRP66>
0

> <HydrogenBond A:SER69>
0

> <HydrogenBond A:PRO73>
0

> <HydrogenBond A:ALA74>
0

> <HydrogenBond A:PHE76>
0

> <HydrogenBond A:ALA77>
0

> <HydrogenBond A:THR78>
0

> <HydrogenBond A:GLU79>
0

> <HydrogenBond A:PHE82>
0

> <HydrogenBond A:ARG83>
0

> <HydrogenBond A:LEU85>
0

> <HydrogenBond A:THR86>
0

> <HydrogenBond A:TRP89>
0

> <HydrogenBond A:THR90>
0

> <HydrogenBond A:ASN93>
0

> <HydrogenBond A:HIS94>
0

> <HydrogenBond A:SER96>
0

> <HydrogenBond A:TRP98>
0

> <HydrogenBond A:ASN144>
0

> <HydrogenBond A:HIS151>
0

> <HydrogenBond A:ILE152>
0

> <HydrogenBond A:ALA154>
0

> <HydrogenBond A:SER155>
0

> <HydrogenBond A:ILE156>
0

> <HydrogenBond A:GLY158>
0

> <HydrogenBond A:TYR159>
0

> <HydrogenBond A:ASN162>
0

> <HydrogenBond A:LYS163>
0

> <HydrogenBond A:SER167>
0

> <HydrogenBond A:ASP168>
0

> <HydrogenBond A:SER169>
0

> <HydrogenBond A:ASN171>
0

> <HydrogenBond A:PHE172>
0

> <HydrogenBond A:THR173>
0

> <HydrogenBond A:ARG174>
0

> <HydrogenBond A:PHE175>
0

> <HydrogenBond A:SER176>
0

> <HydrogenBond A:SER177>
0

> <HydrogenBond A:ILE179>
0

> <HydrogenBond A:VAL180>
0

> <HydrogenBond A:SER183>
0

> <HydrogenBond A:THR184>
0

> <HydrogenBond A:PHE186>
0

> <HydrogenBond A:ILE187>
0

> <HydrogenBond A:PRO190>
0

> <HydrogenBond A:TYR240>
1

> <HydrogenBond A:PHE243>
0

> <HydrogenBond A:SER244>
1

> <HydrogenBond A:PHE247>
0

> <HydrogenBond A:VAL251>
0

> <HydrogenBond A:SER254>
0

> <HydrogenBond A:GLU255>
0

> <HydrogenBond A:ARG256>
0

> <HydrogenBond A:LEU257>
0

> <HydrogenBond A:GLU258>
0

> <HydrogenBond A:GLU259>
0

> <HydrogenBond A:ILE262>
0

> <HydrogenBond A:SER265>
0

> <HydrogenBond A:GLN266>
0

> <HydrogenBond A:MET268>
0

> <HydrogenBond A:GLY269>
0

> <HydrogenBond A:PRO273>
0

> <Other A:SER69>
0

> <Other A:TRP89>
0

> <Other A:TYR159>
0

> <Other A:PHE172>
0

> <Other A:SER176>
0

> <Other A:SER265>
0

$$$$
5280450
  SciTegic09122300493D

 51 50  0  0  0  0            999 V2000
    6.3312   12.0363   -0.5846 O   0  5  0  1  0  0
    5.6976   10.1753    0.2995 O   0  0  0  1  0  0
    7.7562    8.1595   -4.1171 C   0  0  0  1  0  0
    9.2207    7.8622   -4.4305 C   0  0  0  1  0  0
    7.5055    9.6566   -4.0315 C   0  0  0  1  0  0
    9.4151    6.4411   -4.9732 C   0  0  0  1  0  0
    6.6199   10.1236   -2.8943 C   0  0  0  1  0  0
   10.8185    5.8239   -4.8231 C   0  0  0  1  0  0
    7.2318   10.0219   -1.5031 C   0  0  0  1  0  0
   11.6157    5.0055  -10.8941 C   0  0  0  1  0  0
   11.3867    4.1262  -12.1360 C   0  0  0  1  0  0
   10.8631    4.3325   -4.9906 C   0  0  0  1  0  0
   11.2561    4.2950   -9.5837 C   0  0  0  1  0  0
    9.8985    3.9418  -12.4742 C   0  0  0  1  0  0
   11.6828    3.6174   -5.7850 C   0  0  0  1  0  0
   12.6971    4.1348   -6.7728 C   0  0  0  1  0  0
   12.2595    3.2640   -9.1407 C   0  0  0  1  0  0
    6.3634   10.8061   -0.5124 C   0  0  0  1  0  0
   12.8564    3.1911   -7.9370 C   0  0  0  1  0  0
    9.6939    3.0914  -13.7303 C   0  0  0  1  0  0
    7.1329    7.7573   -4.9140 H   0  0
    7.4633    7.6655   -3.1909 H   0  0
    9.5790    8.5703   -5.1774 H   0  0
    9.8011    8.0434   -3.5255 H   0  0
    6.9778    9.9370   -4.9346 H   0  0
    8.4501   10.1828   -4.0030 H   0  0
    8.6655    5.7695   -4.5533 H   0  0
    9.1914    6.5415   -6.0159 H   0  0
    5.7229    9.5237   -2.9237 H   0  0
    6.3436   11.1599   -3.0905 H   0  0
   11.2191    6.0532   -3.8373 H   0  0
   11.4903    6.2723   -5.5522 H   0  0
    7.2516    8.9820   -1.1954 H   0  0
    8.2536   10.3903   -1.4856 H   0  0
   11.0132    5.9097  -10.9776 H   0  0
   12.6551    5.3335  -10.8519 H   0  0
   11.8568    3.1530  -11.9973 H   0  0
   11.8894    4.5686  -12.9953 H   0  0
   10.0941    3.8191   -4.4429 H   0  0
   10.2921    3.8066   -9.6879 H   0  0
   11.1285    5.0443   -8.8053 H   0  0
    9.4277    4.9151  -12.6173 H   0  0
    9.3774    3.4689  -11.6425 H   0  0
   11.5523    2.5503   -5.8136 H   0  0
   13.6653    4.2413   -6.2821 H   0  0
   12.4180    5.1293   -7.1147 H   0  0
   12.5364    2.5511   -9.8948 H   0  0
   13.6083    2.4371   -7.7875 H   0  0
   10.1334    2.1007  -13.6120 H   0  0
   10.1592    3.5651  -14.5940 H   0  0
    8.6333    2.9619  -13.9465 H   0  0
  1 18  1  0
  2 18  2  0
  3  4  1  0
  3  5  1  0
  4  6  1  0
  5  7  1  0
  6  8  1  0
  7  9  1  0
  8 12  1  0
  9 18  1  0
 10 11  1  0
 10 13  1  0
 11 14  1  0
 12 15  2  0
 13 17  1  0
 14 20  1  0
 15 16  1  0
 16 19  1  0
 17 19  2  0
  3 21  1  0
  3 22  1  0
  4 23  1  0
  4 24  1  0
  5 25  1  0
  5 26  1  0
  6 27  1  0
  6 28  1  0
  7 29  1  0
  7 30  1  0
  8 31  1  0
  8 32  1  0
  9 33  1  0
  9 34  1  0
 10 35  1  0
 10 36  1  0
 11 37  1  0
 11 38  1  0
 12 39  1  0
 13 40  1  0
 13 41  1  0
 14 42  1  0
 14 43  1  0
 15 44  1  0
 16 45  1  0
 16 46  1  0
 17 47  1  0
 19 48  1  0
 20 49  1  0
 20 50  1  0
 20 51  1  0
M  CHG  1   1  -1
M  END
> <Name>
5280450

> <Binding Energy>
-74.3347

> <Ligand Energy>
32.9827

> <Protein Energy>
-7801.1566

> <Complex Energy>
-7842.5087

> <Complex Entropy>
-31.4805

> <Protein Entropy>
-31.4717

> <Ligand Entropy>
-19.8652

> <Entropic Energy>
19.8564

> <AbsoluteEnergy>
29.6594

> <ConfNumber>
144

> <Ionization pH>
7.5

> <IonizationIndex>
1

> <MOL_NUMBER>
794

> <NumberOfIonizations>
1

> <NumberOfStereoisomers>
1

> <NumberOfTautomers>
1

> <PUBCHEM_ATOM_DEF_STEREO_COUNT>
0

> <PUBCHEM_ATOM_UDEF_STEREO_COUNT>
0

> <PUBCHEM_BOND_DEF_STEREO_COUNT>
2

> <PUBCHEM_BOND_UDEF_STEREO_COUNT>
0

> <PUBCHEM_CACTVS_COMPLEXITY>
267

> <PUBCHEM_CACTVS_HBOND_ACCEPTOR>
2

> <PUBCHEM_CACTVS_HBOND_DONOR>
1

> <PUBCHEM_CACTVS_ROTATABLE_BOND>
14

> <PUBCHEM_CACTVS_SUBSKEYS>
AAADcfB4MAAAAAAAAAAAAAAAAAAAAAAAAAAAAAAAAAAAAAAAAAAAGgAACAAACACAgAACCAAAAgCIACDSCAAAAAAgAAAICAEAAAgAABIAAQAAQAAEgAAIAAOIyKCAAAAAAAAAAAAAAAAAAAAAAAAAAAAAAA==

> <PUBCHEM_CACTVS_TAUTO_COUNT>
1

> <PUBCHEM_CACTVS_TPSA>
37.3

> <PUBCHEM_COMPONENT_COUNT>
1

> <PUBCHEM_COMPOUND_CANONICALIZED>
1

> <PUBCHEM_COMPOUND_CID>
5280450

> <PUBCHEM_COORDINATE_TYPE>
1
5
255

> <PUBCHEM_EXACT_MASS>
280.240230259

> <PUBCHEM_HEAVY_ATOM_COUNT>
20

> <PUBCHEM_ISOTOPIC_ATOM_COUNT>
0

> <PUBCHEM_IUPAC_CAS_NAME>
(9Z,12Z)-octadeca-9,12-dienoic acid

> <PUBCHEM_IUPAC_INCHI>
InChI=1S/C18H32O2/c1-2-3-4-5-6-7-8-9-10-11-12-13-14-15-16-17-18(19)20/h6-7,9-10H,2-5,8,11-17H2,1H3,(H,19,20)/b7-6-,10-9-

> <PUBCHEM_IUPAC_INCHIKEY>
OYHQOLUKZRVURQ-HZJYTTRNSA-N

> <PUBCHEM_IUPAC_NAME>
(9Z,12Z)-octadeca-9,12-dienoic acid

> <PUBCHEM_IUPAC_NAME_MARKUP>
(9<I>Z</I>,12<I>Z</I>)-octadeca-9,12-dienoic acid

> <PUBCHEM_IUPAC_OPENEYE_NAME>
(9Z,12Z)-octadeca-9,12-dienoic acid

> <PUBCHEM_IUPAC_SYSTEMATIC_NAME>
(9Z,12Z)-octadeca-9,12-dienoic acid

> <PUBCHEM_IUPAC_TRADITIONAL_NAME>
(9Z,12Z)-octadeca-9,12-dienoic acid

> <PUBCHEM_MOLECULAR_FORMULA>
C18H32O2

> <PUBCHEM_MOLECULAR_WEIGHT>
280.4

> <PUBCHEM_MONOISOTOPIC_WEIGHT>
280.240230259

> <PUBCHEM_OPENEYE_CAN_SMILES>
CCCCCC=CCC=CCCCCCCCC(=O)O

> <PUBCHEM_OPENEYE_ISO_SMILES>
CCCCC/C=C\C/C=C\CCCCCCCC(=O)O

> <PUBCHEM_TOTAL_CHARGE>
0

> <PUBCHEM_XLOGP3>
6.8

> <RelativeEnergy>
10.1495

> <StereoisomerIndex>
1

> <TautomerIndex>
1

> <POSE_NUMBER>
9

> <LibDockScore>
119.529

> <HotSpots>
7.21,9.27,-3.25,A,45,5
5.81,9.67,0.14,A,68,18
9.21,3.67,-12.86,A,26,20

> <-In-Situ Starting Energy>
-2016.7334

> <-In-Situ Final Energy>
16.4126529

> <In-Situ Gradient>
0.0008782659207

> <Favorable Total>
4

> <Unfavorable Total>
0

> <Charge Total>
0

> <Hydrophobic Total>
2

> <HydrogenBond Total>
2

> <Other Total>
0

> <Favorable A:LYS6>
0

> <Favorable A:ARG55>
0

> <Favorable A:LEU58>
0

> <Favorable A:LEU61>
0

> <Favorable A:ILE62>
0

> <Favorable A:GLY64>
0

> <Favorable A:SER65>
0

> <Favorable A:TRP66>
0

> <Favorable A:SER69>
0

> <Favorable A:VAL70>
0

> <Favorable A:PRO73>
0

> <Favorable A:ALA74>
0

> <Favorable A:PHE76>
1

> <Favorable A:ALA77>
0

> <Favorable A:THR78>
0

> <Favorable A:GLU79>
0

> <Favorable A:PHE82>
0

> <Favorable A:ARG83>
0

> <Favorable A:LEU85>
1

> <Favorable A:THR86>
0

> <Favorable A:TRP89>
0

> <Favorable A:THR90>
0

> <Favorable A:ASN93>
0

> <Favorable A:HIS94>
1

> <Favorable A:SER96>
0

> <Favorable A:VAL97>
0

> <Favorable A:TRP98>
1

> <Favorable A:PHE140>
0

> <Favorable A:LEU141>
0

> <Favorable A:ASN144>
0

> <Favorable A:ILE148>
0

> <Favorable A:ILE150>
0

> <Favorable A:HIS151>
0

> <Favorable A:ILE152>
0

> <Favorable A:ALA154>
0

> <Favorable A:SER155>
0

> <Favorable A:ILE156>
0

> <Favorable A:GLY158>
0

> <Favorable A:TYR159>
0

> <Favorable A:ARG160>
0

> <Favorable A:ARG161>
0

> <Favorable A:ASN162>
0

> <Favorable A:LYS163>
0

> <Favorable A:SER167>
0

> <Favorable A:ASP168>
0

> <Favorable A:SER169>
0

> <Favorable A:ASN171>
0

> <Favorable A:PHE172>
0

> <Favorable A:THR173>
0

> <Favorable A:ARG174>
0

> <Favorable A:PHE175>
0

> <Favorable A:SER176>
0

> <Favorable A:SER177>
0

> <Favorable A:LEU178>
0

> <Favorable A:ILE179>
0

> <Favorable A:VAL180>
0

> <Favorable A:LEU181>
0

> <Favorable A:SER183>
0

> <Favorable A:THR184>
0

> <Favorable A:PHE186>
0

> <Favorable A:ILE187>
0

> <Favorable A:PHE188>
0

> <Favorable A:ILE189>
0

> <Favorable A:PRO190>
0

> <Favorable A:PHE191>
0

> <Favorable A:TYR240>
0

> <Favorable A:PHE243>
0

> <Favorable A:SER244>
0

> <Favorable A:PHE247>
0

> <Favorable A:PHE248>
0

> <Favorable A:VAL251>
0

> <Favorable A:TRP252>
0

> <Favorable A:SER254>
0

> <Favorable A:GLU255>
0

> <Favorable A:ARG256>
0

> <Favorable A:LEU257>
0

> <Favorable A:GLU258>
0

> <Favorable A:GLU259>
0

> <Favorable A:LEU261>
0

> <Favorable A:ILE262>
0

> <Favorable A:ILE263>
0

> <Favorable A:SER265>
0

> <Favorable A:GLN266>
0

> <Favorable A:MET268>
0

> <Favorable A:GLY269>
0

> <Favorable A:TYR272>
0

> <Favorable A:PRO273>
0

> <Unfavorable A:ARG55>
0

> <Unfavorable A:PRO73>
0

> <Unfavorable A:PHE76>
0

> <Unfavorable A:GLU79>
0

> <Unfavorable A:ARG83>
0

> <Unfavorable A:THR86>
0

> <Unfavorable A:TRP89>
0

> <Unfavorable A:THR90>
0

> <Unfavorable A:ASN93>
0

> <Unfavorable A:TRP98>
0

> <Unfavorable A:ASN144>
0

> <Unfavorable A:SER155>
0

> <Unfavorable A:GLY158>
0

> <Unfavorable A:TYR159>
0

> <Unfavorable A:ASN162>
0

> <Unfavorable A:ASP168>
0

> <Unfavorable A:ASN171>
0

> <Unfavorable A:THR173>
0

> <Unfavorable A:ARG174>
0

> <Unfavorable A:SER183>
0

> <Unfavorable A:THR184>
0

> <Unfavorable A:PHE186>
0

> <Unfavorable A:SER244>
0

> <Unfavorable A:SER254>
0

> <Unfavorable A:GLU255>
0

> <Unfavorable A:SER265>
0

> <Unfavorable A:GLN266>
0

> <Unfavorable A:GLY269>
0

> <Charge A:ARG55>
0

> <Charge A:PHE76>
0

> <Charge A:GLU79>
0

> <Charge A:PHE82>
0

> <Charge A:ARG83>
0

> <Charge A:TRP89>
0

> <Charge A:HIS94>
0

> <Charge A:TRP98>
0

> <Charge A:TYR159>
0

> <Charge A:ARG161>
0

> <Charge A:LYS163>
0

> <Charge A:ASP168>
0

> <Charge A:PHE172>
0

> <Charge A:ARG174>
0

> <Charge A:PHE175>
0

> <Charge A:PHE188>
0

> <Charge A:PHE247>
0

> <Charge A:PHE248>
0

> <Hydrophobic A:LEU58>
0

> <Hydrophobic A:LEU61>
0

> <Hydrophobic A:ILE62>
0

> <Hydrophobic A:TRP66>
0

> <Hydrophobic A:VAL70>
0

> <Hydrophobic A:PRO73>
0

> <Hydrophobic A:ALA74>
0

> <Hydrophobic A:PHE76>
1

> <Hydrophobic A:ALA77>
0

> <Hydrophobic A:THR78>
0

> <Hydrophobic A:PHE82>
0

> <Hydrophobic A:ARG83>
0

> <Hydrophobic A:LEU85>
1

> <Hydrophobic A:TRP89>
0

> <Hydrophobic A:THR90>
0

> <Hydrophobic A:ASN93>
0

> <Hydrophobic A:HIS94>
0

> <Hydrophobic A:VAL97>
0

> <Hydrophobic A:TRP98>
0

> <Hydrophobic A:PHE140>
0

> <Hydrophobic A:LEU141>
0

> <Hydrophobic A:ILE148>
0

> <Hydrophobic A:ILE150>
0

> <Hydrophobic A:HIS151>
0

> <Hydrophobic A:ILE152>
0

> <Hydrophobic A:ALA154>
0

> <Hydrophobic A:SER155>
0

> <Hydrophobic A:ILE156>
0

> <Hydrophobic A:GLY158>
0

> <Hydrophobic A:TYR159>
0

> <Hydrophobic A:ARG160>
0

> <Hydrophobic A:ARG161>
0

> <Hydrophobic A:ASP168>
0

> <Hydrophobic A:ASN171>
0

> <Hydrophobic A:PHE172>
0

> <Hydrophobic A:ARG174>
0

> <Hydrophobic A:PHE175>
0

> <Hydrophobic A:LEU178>
0

> <Hydrophobic A:ILE179>
0

> <Hydrophobic A:VAL180>
0

> <Hydrophobic A:LEU181>
0

> <Hydrophobic A:PHE186>
0

> <Hydrophobic A:ILE187>
0

> <Hydrophobic A:PHE188>
0

> <Hydrophobic A:ILE189>
0

> <Hydrophobic A:PRO190>
0

> <Hydrophobic A:PHE191>
0

> <Hydrophobic A:TYR240>
0

> <Hydrophobic A:PHE243>
0

> <Hydrophobic A:PHE247>
0

> <Hydrophobic A:PHE248>
0

> <Hydrophobic A:VAL251>
0

> <Hydrophobic A:TRP252>
0

> <Hydrophobic A:SER254>
0

> <Hydrophobic A:LEU261>
0

> <Hydrophobic A:ILE262>
0

> <Hydrophobic A:ILE263>
0

> <Hydrophobic A:TYR272>
0

> <Hydrophobic A:PRO273>
0

> <HydrogenBond A:LYS6>
0

> <HydrogenBond A:ARG55>
0

> <HydrogenBond A:GLY64>
0

> <HydrogenBond A:SER65>
0

> <HydrogenBond A:TRP66>
0

> <HydrogenBond A:SER69>
0

> <HydrogenBond A:PRO73>
0

> <HydrogenBond A:ALA74>
0

> <HydrogenBond A:PHE76>
0

> <HydrogenBond A:ALA77>
0

> <HydrogenBond A:THR78>
0

> <HydrogenBond A:GLU79>
0

> <HydrogenBond A:PHE82>
0

> <HydrogenBond A:ARG83>
0

> <HydrogenBond A:LEU85>
0

> <HydrogenBond A:THR86>
0

> <HydrogenBond A:TRP89>
0

> <HydrogenBond A:THR90>
0

> <HydrogenBond A:ASN93>
0

> <HydrogenBond A:HIS94>
1

> <HydrogenBond A:SER96>
0

> <HydrogenBond A:TRP98>
1

> <HydrogenBond A:ASN144>
0

> <HydrogenBond A:HIS151>
0

> <HydrogenBond A:ILE152>
0

> <HydrogenBond A:ALA154>
0

> <HydrogenBond A:SER155>
0

> <HydrogenBond A:ILE156>
0

> <HydrogenBond A:GLY158>
0

> <HydrogenBond A:TYR159>
0

> <HydrogenBond A:ASN162>
0

> <HydrogenBond A:LYS163>
0

> <HydrogenBond A:SER167>
0

> <HydrogenBond A:ASP168>
0

> <HydrogenBond A:SER169>
0

> <HydrogenBond A:ASN171>
0

> <HydrogenBond A:PHE172>
0

> <HydrogenBond A:THR173>
0

> <HydrogenBond A:ARG174>
0

> <HydrogenBond A:PHE175>
0

> <HydrogenBond A:SER176>
0

> <HydrogenBond A:SER177>
0

> <HydrogenBond A:ILE179>
0

> <HydrogenBond A:VAL180>
0

> <HydrogenBond A:SER183>
0

> <HydrogenBond A:THR184>
0

> <HydrogenBond A:PHE186>
0

> <HydrogenBond A:ILE187>
0

> <HydrogenBond A:PRO190>
0

> <HydrogenBond A:TYR240>
0

> <HydrogenBond A:PHE243>
0

> <HydrogenBond A:SER244>
0

> <HydrogenBond A:PHE247>
0

> <HydrogenBond A:VAL251>
0

> <HydrogenBond A:SER254>
0

> <HydrogenBond A:GLU255>
0

> <HydrogenBond A:ARG256>
0

> <HydrogenBond A:LEU257>
0

> <HydrogenBond A:GLU258>
0

> <HydrogenBond A:GLU259>
0

> <HydrogenBond A:ILE262>
0

> <HydrogenBond A:SER265>
0

> <HydrogenBond A:GLN266>
0

> <HydrogenBond A:MET268>
0

> <HydrogenBond A:GLY269>
0

> <HydrogenBond A:PRO273>
0

> <Other A:SER69>
0

> <Other A:TRP89>
0

> <Other A:TYR159>
0

> <Other A:PHE172>
0

> <Other A:SER176>
0

> <Other A:SER265>
0

$$$$
5280637
  SciTegic09122300493D

 52 55  0  0  0  0            999 V2000
   10.9965    5.4450  -12.0336 O   0  0  0  1  0  0
   11.2044    3.7864  -10.5214 O   0  0  0  1  0  0
   12.0048    2.2168  -13.2086 O   0  0  0  1  0  0
   12.0649    5.6158  -14.4673 O   0  0  0  1  0  0
   13.8253    5.3291  -12.5792 O   0  0  0  1  0  0
    8.4422    3.1965  -13.5470 O   0  0  0  1  0  0
   15.2328    1.6751   -8.8991 O   0  0  0  1  0  0
   11.3665   -0.9061  -10.2188 O   0  0  0  1  0  0
   13.3315   -2.0223   -9.0164 O   0  0  0  1  0  0
   20.4401   -1.4330   -8.7852 O   0  0  0  1  0  0
   21.4108    1.0307   -8.6483 O   0  0  0  1  0  0
   12.4850    3.5135  -13.5296 C   0  0  1  1  0  0
   11.3885    4.4127  -14.1315 C   0  0  1  1  0  0
   13.0476    4.1938  -12.2572 C   0  0  2  1  0  0
   10.3292    4.7407  -13.0738 C   0  0  1  1  0  0
   11.9498    4.7211  -11.2805 C   0  0  1  1  0  0
    9.4285    3.5790  -12.5978 C   0  0  0  1  0  0
   11.8972    2.6980  -10.0304 C   0  0  0  1  0  0
   13.1831    2.7732   -9.5009 C   0  0  0  1  0  0
   11.2720    1.4704  -10.1767 C   0  0  0  1  0  0
   13.8846    1.6076   -9.2392 C   0  0  0  1  0  0
   13.2606    0.3764   -9.4204 C   0  0  0  1  0  0
   11.9580    0.3059   -9.9104 C   0  0  0  1  0  0
   13.9842   -0.8351   -9.0687 C   0  0  0  1  0  0
   15.9987    0.5682   -8.7920 C   0  0  0  1  0  0
   15.2888   -0.7214   -8.7758 C   0  0  0  1  0  0
   17.3453    0.6875   -8.7268 C   0  0  0  1  0  0
   18.2621   -0.4686   -8.7064 C   0  0  0  1  0  0
   18.0093    2.0018   -8.6793 C   0  0  0  1  0  0
   19.6020   -0.3649   -8.7149 C   0  0  0  1  0  0
   19.3454    2.1479   -8.5433 C   0  0  0  1  0  0
   20.2205    0.9650   -8.6206 C   0  0  0  1  0  0
   11.8257    1.7122  -13.9965 H   0  0
   11.5096    6.2685  -14.9096 H   0  0
   13.3606    5.8243  -13.2549 H   0  0
    8.8158    2.6240  -14.2085 H   0  0
   12.0538   -1.5552  -10.1323 H   0  0
   13.1850   -2.1926   -8.0900 H   0  0
   21.3040   -1.1119   -8.5136 H   0  0
   13.3133    3.4174  -14.2417 H   0  0
   10.9506    3.9722  -15.0284 H   0  0
   13.7510    3.5046  -11.8005 H   0  0
    9.6295    5.4259  -13.5201 H   0  0
   12.4190    5.4097  -10.5762 H   0  0
    9.9871    2.7088  -12.2602 H   0  0
    8.8901    3.9165  -11.7157 H   0  0
   13.6784    3.7246   -9.3768 H   0  0
   10.2664    1.4103  -10.5622 H   0  0
   15.8310   -1.6060   -8.5127 H   0  0
   17.8549   -1.4523   -8.6744 H   0  0
   17.3631    2.8531   -8.7520 H   0  0
   19.8177    3.0940   -8.3800 H   0  0
  1 15  1  0
  1 16  1  0
  2 16  1  0
  2 18  1  0
  3 12  1  0
  4 13  1  0
  5 14  1  0
  6 17  1  0
  7 21  1  0
  7 25  1  0
  8 23  1  0
  9 24  1  0
 10 30  1  0
 11 32  2  0
 12 13  1  0
 12 14  1  0
 13 15  1  0
 14 16  1  0
 15 17  1  0
 18 19  2  0
 18 20  1  0
 19 21  1  0
 20 23  2  0
 21 22  2  0
 22 23  1  0
 22 24  1  0
 24 26  2  0
 25 26  1  0
 25 27  2  0
 27 28  1  0
 27 29  1  0
 28 30  2  0
 29 31  2  0
 30 32  1  0
 31 32  1  0
  3 33  1  0
  4 34  1  0
  5 35  1  0
  6 36  1  0
  8 37  1  0
  9 38  1  0
 10 39  1  0
 12 40  1  0
 13 41  1  0
 14 42  1  0
 15 43  1  0
 16 44  1  0
 17 45  1  0
 17 46  1  0
 19 47  1  0
 20 48  1  0
 26 49  1  0
 28 50  1  0
 29 51  1  0
 31 52  1  0
M  END
> <Name>
5280637

> <Binding Energy>
-38.4529

> <Ligand Energy>
53.7615

> <Protein Energy>
-7801.1566

> <Complex Energy>
-7785.848

> <Complex Entropy>
-31.488

> <Protein Entropy>
-31.4717

> <Ligand Entropy>
-20.506

> <Entropic Energy>
20.4896

> <AbsoluteEnergy>
50.1306

> <ConfNumber>
30

> <Ionization pH>
7.5

> <IonizationIndex>
1

> <MOL_NUMBER>
797

> <NumberOfIonizations>
1

> <NumberOfStereoisomers>
1

> <NumberOfTautomers>
3

> <PUBCHEM_ATOM_DEF_STEREO_COUNT>
5

> <PUBCHEM_ATOM_UDEF_STEREO_COUNT>
0

> <PUBCHEM_BONDANNOTATIONS>
15  17  5
18  19  8
18  20  8
19  21  8
16  2  5
20  23  8
21  22  8
22  23  8
22  24  8
24  26  8
25  26  8
27  28  8
27  29  8
28  30  8
29  31  8
12  3  5
30  32  8
31  32  8
13  4  6
14  5  6
7  21  8
7  25  8

> <PUBCHEM_BOND_DEF_STEREO_COUNT>
0

> <PUBCHEM_BOND_UDEF_STEREO_COUNT>
0

> <PUBCHEM_CACTVS_COMPLEXITY>
714

> <PUBCHEM_CACTVS_HBOND_ACCEPTOR>
11

> <PUBCHEM_CACTVS_HBOND_DONOR>
7

> <PUBCHEM_CACTVS_ROTATABLE_BOND>
4

> <PUBCHEM_CACTVS_SUBSKEYS>
AAADceB4PAAAAAAAAAAAAAAAAAAAAAAAAAA0YIEAAAAAAACBQAAAGgAACAAADBSwmAMwDoAABgCIAqBSAAACCAAkIAAIiAEGiMgdNzaGNRqieWGl4BUPuQfI7LzOIAABCAAIQABAAAIQABCAAAAAAAAAAA==

> <PUBCHEM_CACTVS_TAUTO_COUNT>
68

> <PUBCHEM_CACTVS_TPSA>
186

> <PUBCHEM_COMPONENT_COUNT>
1

> <PUBCHEM_COMPOUND_CANONICALIZED>
1

> <PUBCHEM_COMPOUND_CID>
5280637

> <PUBCHEM_COORDINATE_TYPE>
1
5
255

> <PUBCHEM_EXACT_MASS>
448.10056145

> <PUBCHEM_HEAVY_ATOM_COUNT>
32

> <PUBCHEM_ISOTOPIC_ATOM_COUNT>
0

> <PUBCHEM_IUPAC_CAS_NAME>
2-(3,4-dihydroxyphenyl)-5-hydroxy-7-[[(2S,3R,4S,5S,6R)-3,4,5-trihydroxy-6-(hydroxymethyl)-2-oxanyl]oxy]-1-benzopyran-4-one

> <PUBCHEM_IUPAC_INCHI>
InChI=1S/C21H20O11/c22-7-16-18(27)19(28)20(29)21(32-16)30-9-4-12(25)17-13(26)6-14(31-15(17)5-9)8-1-2-10(23)11(24)3-8/h1-6,16,18-25,27-29H,7H2/t16-,18-,19+,20-,21-/m1/s1

> <PUBCHEM_IUPAC_INCHIKEY>
PEFNSGRTCBGNAN-QNDFHXLGSA-N

> <PUBCHEM_IUPAC_NAME>
2-(3,4-dihydroxyphenyl)-5-hydroxy-7-[(2S,3R,4S,5S,6R)-3,4,5-trihydroxy-6-(hydroxymethyl)oxan-2-yl]oxychromen-4-one

> <PUBCHEM_IUPAC_NAME_MARKUP>
2-(3,4-dihydroxyphenyl)-5-hydroxy-7-[(2<I>S</I>,3<I>R</I>,4<I>S</I>,5<I>S</I>,6<I>R</I>)-3,4,5-trihydroxy-6-(hydroxymethyl)oxan-2-yl]oxychromen-4-one

> <PUBCHEM_IUPAC_OPENEYE_NAME>
2-(3,4-dihydroxyphenyl)-5-hydroxy-7-[(2S,3R,4S,5S,6R)-3,4,5-trihydroxy-6-(hydroxymethyl)tetrahydropyran-2-yl]oxy-chromen-4-one

> <PUBCHEM_IUPAC_SYSTEMATIC_NAME>
2-[3,4-bis(oxidanyl)phenyl]-7-[(2S,3R,4S,5S,6R)-6-(hydroxymethyl)-3,4,5-tris(oxidanyl)oxan-2-yl]oxy-5-oxidanyl-chromen-4-one

> <PUBCHEM_IUPAC_TRADITIONAL_NAME>
2-(3,4-dihydroxyphenyl)-5-hydroxy-7-[(2S,3R,4S,5S,6R)-3,4,5-trihydroxy-6-methylol-tetrahydropyran-2-yl]oxy-chromone

> <PUBCHEM_MOLECULAR_FORMULA>
C21H20O11

> <PUBCHEM_MOLECULAR_WEIGHT>
448.4

> <PUBCHEM_MONOISOTOPIC_WEIGHT>
448.10056145

> <PUBCHEM_OPENEYE_CAN_SMILES>
C1=CC(=C(C=C1C2=CC(=O)C3=C(C=C(C=C3O2)OC4C(C(C(C(O4)CO)O)O)O)O)O)O

> <PUBCHEM_OPENEYE_ISO_SMILES>
C1=CC(=C(C=C1C2=CC(=O)C3=C(C=C(C=C3O2)O[C@H]4[C@@H]([C@H]([C@@H]([C@H](O4)CO)O)O)O)O)O)O

> <PUBCHEM_TOTAL_CHARGE>
0

> <PUBCHEM_XLOGP3_AA>
0.5

> <RelativeEnergy>
5.90418

> <StereoisomerIndex>
1

> <TautomerIndex>
3

> <POSE_NUMBER>
1

> <LibDockScore>
99.5957

> <HotSpots>
11.01,5.47,-15.65,P,18,4
21.81,4.27,-8.86,P,37,11
9.21,3.67,-12.86,A,26,17

> <-In-Situ Starting Energy>
-44647.1981

> <-In-Situ Final Energy>
10.5268169

> <In-Situ Gradient>
0.0009949007758

> <Favorable Total>
8

> <Unfavorable Total>
1

> <Charge Total>
0

> <Hydrophobic Total>
2

> <HydrogenBond Total>
6

> <Other Total>
0

> <Favorable A:LYS6>
0

> <Favorable A:ARG55>
0

> <Favorable A:LEU58>
0

> <Favorable A:LEU61>
0

> <Favorable A:ILE62>
0

> <Favorable A:GLY64>
0

> <Favorable A:SER65>
0

> <Favorable A:TRP66>
0

> <Favorable A:SER69>
0

> <Favorable A:VAL70>
0

> <Favorable A:PRO73>
0

> <Favorable A:ALA74>
0

> <Favorable A:PHE76>
0

> <Favorable A:ALA77>
0

> <Favorable A:THR78>
0

> <Favorable A:GLU79>
0

> <Favorable A:PHE82>
1

> <Favorable A:ARG83>
0

> <Favorable A:LEU85>
0

> <Favorable A:THR86>
2

> <Favorable A:TRP89>
0

> <Favorable A:THR90>
0

> <Favorable A:ASN93>
0

> <Favorable A:HIS94>
0

> <Favorable A:SER96>
0

> <Favorable A:VAL97>
0

> <Favorable A:TRP98>
0

> <Favorable A:PHE140>
0

> <Favorable A:LEU141>
0

> <Favorable A:ASN144>
0

> <Favorable A:ILE148>
0

> <Favorable A:ILE150>
0

> <Favorable A:HIS151>
0

> <Favorable A:ILE152>
0

> <Favorable A:ALA154>
0

> <Favorable A:SER155>
0

> <Favorable A:ILE156>
0

> <Favorable A:GLY158>
0

> <Favorable A:TYR159>
0

> <Favorable A:ARG160>
0

> <Favorable A:ARG161>
0

> <Favorable A:ASN162>
0

> <Favorable A:LYS163>
0

> <Favorable A:SER167>
0

> <Favorable A:ASP168>
0

> <Favorable A:SER169>
0

> <Favorable A:ASN171>
0

> <Favorable A:PHE172>
0

> <Favorable A:THR173>
0

> <Favorable A:ARG174>
0

> <Favorable A:PHE175>
0

> <Favorable A:SER176>
0

> <Favorable A:SER177>
0

> <Favorable A:LEU178>
0

> <Favorable A:ILE179>
0

> <Favorable A:VAL180>
1

> <Favorable A:LEU181>
0

> <Favorable A:SER183>
0

> <Favorable A:THR184>
0

> <Favorable A:PHE186>
0

> <Favorable A:ILE187>
0

> <Favorable A:PHE188>
0

> <Favorable A:ILE189>
0

> <Favorable A:PRO190>
0

> <Favorable A:PHE191>
0

> <Favorable A:TYR240>
0

> <Favorable A:PHE243>
0

> <Favorable A:SER244>
0

> <Favorable A:PHE247>
0

> <Favorable A:PHE248>
0

> <Favorable A:VAL251>
0

> <Favorable A:TRP252>
0

> <Favorable A:SER254>
1

> <Favorable A:GLU255>
1

> <Favorable A:ARG256>
0

> <Favorable A:LEU257>
0

> <Favorable A:GLU258>
0

> <Favorable A:GLU259>
0

> <Favorable A:LEU261>
0

> <Favorable A:ILE262>
2

> <Favorable A:ILE263>
0

> <Favorable A:SER265>
0

> <Favorable A:GLN266>
0

> <Favorable A:MET268>
0

> <Favorable A:GLY269>
0

> <Favorable A:TYR272>
0

> <Favorable A:PRO273>
0

> <Unfavorable A:ARG55>
0

> <Unfavorable A:PRO73>
0

> <Unfavorable A:PHE76>
0

> <Unfavorable A:GLU79>
0

> <Unfavorable A:ARG83>
0

> <Unfavorable A:THR86>
1

> <Unfavorable A:TRP89>
0

> <Unfavorable A:THR90>
0

> <Unfavorable A:ASN93>
0

> <Unfavorable A:TRP98>
0

> <Unfavorable A:ASN144>
0

> <Unfavorable A:SER155>
0

> <Unfavorable A:GLY158>
0

> <Unfavorable A:TYR159>
0

> <Unfavorable A:ASN162>
0

> <Unfavorable A:ASP168>
0

> <Unfavorable A:ASN171>
0

> <Unfavorable A:THR173>
0

> <Unfavorable A:ARG174>
0

> <Unfavorable A:SER183>
0

> <Unfavorable A:THR184>
0

> <Unfavorable A:PHE186>
0

> <Unfavorable A:SER244>
0

> <Unfavorable A:SER254>
0

> <Unfavorable A:GLU255>
0

> <Unfavorable A:SER265>
0

> <Unfavorable A:GLN266>
0

> <Unfavorable A:GLY269>
0

> <Charge A:ARG55>
0

> <Charge A:PHE76>
0

> <Charge A:GLU79>
0

> <Charge A:PHE82>
0

> <Charge A:ARG83>
0

> <Charge A:TRP89>
0

> <Charge A:HIS94>
0

> <Charge A:TRP98>
0

> <Charge A:TYR159>
0

> <Charge A:ARG161>
0

> <Charge A:LYS163>
0

> <Charge A:ASP168>
0

> <Charge A:PHE172>
0

> <Charge A:ARG174>
0

> <Charge A:PHE175>
0

> <Charge A:PHE188>
0

> <Charge A:PHE247>
0

> <Charge A:PHE248>
0

> <Hydrophobic A:LEU58>
0

> <Hydrophobic A:LEU61>
0

> <Hydrophobic A:ILE62>
0

> <Hydrophobic A:TRP66>
0

> <Hydrophobic A:VAL70>
0

> <Hydrophobic A:PRO73>
0

> <Hydrophobic A:ALA74>
0

> <Hydrophobic A:PHE76>
0

> <Hydrophobic A:ALA77>
0

> <Hydrophobic A:THR78>
0

> <Hydrophobic A:PHE82>
0

> <Hydrophobic A:ARG83>
0

> <Hydrophobic A:LEU85>
0

> <Hydrophobic A:TRP89>
0

> <Hydrophobic A:THR90>
0

> <Hydrophobic A:ASN93>
0

> <Hydrophobic A:HIS94>
0

> <Hydrophobic A:VAL97>
0

> <Hydrophobic A:TRP98>
0

> <Hydrophobic A:PHE140>
0

> <Hydrophobic A:LEU141>
0

> <Hydrophobic A:ILE148>
0

> <Hydrophobic A:ILE150>
0

> <Hydrophobic A:HIS151>
0

> <Hydrophobic A:ILE152>
0

> <Hydrophobic A:ALA154>
0

> <Hydrophobic A:SER155>
0

> <Hydrophobic A:ILE156>
0

> <Hydrophobic A:GLY158>
0

> <Hydrophobic A:TYR159>
0

> <Hydrophobic A:ARG160>
0

> <Hydrophobic A:ARG161>
0

> <Hydrophobic A:ASP168>
0

> <Hydrophobic A:ASN171>
0

> <Hydrophobic A:PHE172>
0

> <Hydrophobic A:ARG174>
0

> <Hydrophobic A:PHE175>
0

> <Hydrophobic A:LEU178>
0

> <Hydrophobic A:ILE179>
0

> <Hydrophobic A:VAL180>
1

> <Hydrophobic A:LEU181>
0

> <Hydrophobic A:PHE186>
0

> <Hydrophobic A:ILE187>
0

> <Hydrophobic A:PHE188>
0

> <Hydrophobic A:ILE189>
0

> <Hydrophobic A:PRO190>
0

> <Hydrophobic A:PHE191>
0

> <Hydrophobic A:TYR240>
0

> <Hydrophobic A:PHE243>
0

> <Hydrophobic A:PHE247>
0

> <Hydrophobic A:PHE248>
0

> <Hydrophobic A:VAL251>
0

> <Hydrophobic A:TRP252>
0

> <Hydrophobic A:SER254>
0

> <Hydrophobic A:LEU261>
0

> <Hydrophobic A:ILE262>
1

> <Hydrophobic A:ILE263>
0

> <Hydrophobic A:TYR272>
0

> <Hydrophobic A:PRO273>
0

> <HydrogenBond A:LYS6>
0

> <HydrogenBond A:ARG55>
0

> <HydrogenBond A:GLY64>
0

> <HydrogenBond A:SER65>
0

> <HydrogenBond A:TRP66>
0

> <HydrogenBond A:SER69>
0

> <HydrogenBond A:PRO73>
0

> <HydrogenBond A:ALA74>
0

> <HydrogenBond A:PHE76>
0

> <HydrogenBond A:ALA77>
0

> <HydrogenBond A:THR78>
0

> <HydrogenBond A:GLU79>
0

> <HydrogenBond A:PHE82>
1

> <HydrogenBond A:ARG83>
0

> <HydrogenBond A:LEU85>
0

> <HydrogenBond A:THR86>
2

> <HydrogenBond A:TRP89>
0

> <HydrogenBond A:THR90>
0

> <HydrogenBond A:ASN93>
0

> <HydrogenBond A:HIS94>
0

> <HydrogenBond A:SER96>
0

> <HydrogenBond A:TRP98>
0

> <HydrogenBond A:ASN144>
0

> <HydrogenBond A:HIS151>
0

> <HydrogenBond A:ILE152>
0

> <HydrogenBond A:ALA154>
0

> <HydrogenBond A:SER155>
0

> <HydrogenBond A:ILE156>
0

> <HydrogenBond A:GLY158>
0

> <HydrogenBond A:TYR159>
0

> <HydrogenBond A:ASN162>
0

> <HydrogenBond A:LYS163>
0

> <HydrogenBond A:SER167>
0

> <HydrogenBond A:ASP168>
0

> <HydrogenBond A:SER169>
0

> <HydrogenBond A:ASN171>
0

> <HydrogenBond A:PHE172>
0

> <HydrogenBond A:THR173>
0

> <HydrogenBond A:ARG174>
0

> <HydrogenBond A:PHE175>
0

> <HydrogenBond A:SER176>
0

> <HydrogenBond A:SER177>
0

> <HydrogenBond A:ILE179>
0

> <HydrogenBond A:VAL180>
0

> <HydrogenBond A:SER183>
0

> <HydrogenBond A:THR184>
0

> <HydrogenBond A:PHE186>
0

> <HydrogenBond A:ILE187>
0

> <HydrogenBond A:PRO190>
0

> <HydrogenBond A:TYR240>
0

> <HydrogenBond A:PHE243>
0

> <HydrogenBond A:SER244>
0

> <HydrogenBond A:PHE247>
0

> <HydrogenBond A:VAL251>
0

> <HydrogenBond A:SER254>
1

> <HydrogenBond A:GLU255>
1

> <HydrogenBond A:ARG256>
0

> <HydrogenBond A:LEU257>
0

> <HydrogenBond A:GLU258>
0

> <HydrogenBond A:GLU259>
0

> <HydrogenBond A:ILE262>
1

> <HydrogenBond A:SER265>
0

> <HydrogenBond A:GLN266>
0

> <HydrogenBond A:MET268>
0

> <HydrogenBond A:GLY269>
0

> <HydrogenBond A:PRO273>
0

> <Other A:SER69>
0

> <Other A:TRP89>
0

> <Other A:TYR159>
0

> <Other A:PHE172>
0

> <Other A:SER176>
0

> <Other A:SER265>
0

$$$$
5281613
  SciTegic09122300493D

 75 79  0  0  0  0            999 V2000
   12.9121    1.3917   -9.1380 O   0  0  0  1  0  0
    9.5508    3.3419  -11.5071 O   0  0  0  1  0  0
   11.4652    2.0899  -11.1614 O   0  0  0  1  0  0
   10.2641   -0.9755   -8.1770 O   0  0  0  1  0  0
   11.7926   -0.9412   -5.9544 O   0  0  0  1  0  0
   15.0115    1.7652   -8.2681 O   0  0  0  1  0  0
   14.6458   -0.3327   -6.4489 O   0  0  0  1  0  0
   11.4722    5.4597  -12.5477 O   0  0  0  1  0  0
   11.7402    4.1725  -14.9025 O   0  0  0  1  0  0
    9.1618    2.7263  -15.0016 O   0  0  0  1  0  0
   19.0342    0.2934  -10.4305 O   0  0  0  1  0  0
   16.2136    3.6621  -12.4853 O   0  0  0  1  0  0
   18.4804    2.7765  -13.5082 O   0  0  0  1  0  0
   24.1585   -3.4827  -11.2246 O   0  0  0  1  0  0
   23.0373   -2.5697   -8.9616 O   0  0  0  1  0  0
   11.8200    0.5294   -9.3987 C   0  0  1  1  0  0
   11.2397    0.0431   -8.0579 C   0  0  2  1  0  0
   12.3214   -0.6145   -7.2305 C   0  0  1  1  0  0
   13.5551    0.2944   -7.0948 C   0  0  2  1  0  0
   11.6983    4.0557  -12.4901 C   0  0  1  1  0  0
   10.9585    3.3918  -11.3053 C   0  0  1  1  0  0
   11.2190    3.4357  -13.8146 C   0  0  1  1  0  0
    9.6856    3.3502  -13.8472 C   0  0  2  1  0  0
   14.0056    0.7926   -8.4733 C   0  0  1  1  0  0
    9.1425    2.6048  -12.6408 C   0  0  2  1  0  0
   10.7933    1.3401  -10.1797 C   0  0  0  1  0  0
    7.6133    2.4606  -12.7638 C   0  0  0  1  0  0
   15.8874    1.8379   -9.3352 C   0  0  0  1  0  0
   17.0346    1.0549   -9.3419 C   0  0  0  1  0  0
   15.6321    2.7046  -10.3876 C   0  0  0  1  0  0
   17.9207    1.1272  -10.4089 C   0  0  0  1  0  0
   16.5194    2.7970  -11.4505 C   0  0  0  1  0  0
   17.6725    2.0087  -11.4588 C   0  0  0  1  0  0
   18.6351    2.0628  -12.5607 C   0  0  0  1  0  0
   19.9214    0.2932  -11.4661 C   0  0  0  1  0  0
   19.7951    1.1515  -12.5006 C   0  0  0  1  0  0
   21.0281   -0.6816  -11.4268 C   0  0  0  1  0  0
   21.4964   -1.1601  -10.2053 C   0  0  0  1  0  0
   21.5924   -1.1667  -12.6040 C   0  0  0  1  0  0
   22.5401   -2.0900  -10.1627 C   0  0  0  1  0  0
   22.6251   -2.0923  -12.5640 C   0  0  0  1  0  0
   23.1138   -2.5585  -11.3436 C   0  0  0  1  0  0
   24.7845   -3.8907  -12.4254 C   0  0  0  1  0  0
    9.6796   -0.7696   -8.8942 H   0  0
   11.0425   -1.5189   -6.0817 H   0  0
   14.7215   -1.2210   -6.7908 H   0  0
   11.6802    5.8189  -11.6885 H   0  0
   11.5957    5.0995  -14.7189 H   0  0
    9.2329    1.7855  -14.9208 H   0  0
   16.9690    3.7120  -13.0721 H   0  0
   22.7286   -2.0507   -8.2242 H   0  0
   12.1664   -0.3096  -10.0045 H   0  0
   10.8381    0.8848   -7.4923 H   0  0
   12.5722   -1.5094   -7.8048 H   0  0
   13.2837    1.1597   -6.4890 H   0  0
   12.7762    3.8753  -12.4012 H   0  0
   11.1531    3.9199  -10.3700 H   0  0
   11.6278    2.4271  -13.8909 H   0  0
    9.2905    4.3634  -13.7863 H   0  0
   14.3811   -0.0444   -9.0679 H   0  0
    9.5680    1.6020  -12.5877 H   0  0
   10.0462    0.7192  -10.6697 H   0  0
   10.2686    1.9981   -9.4848 H   0  0
    7.1086    3.3702  -12.4505 H   0  0
    7.2694    1.5980  -12.1966 H   0  0
    7.2419    2.2810  -13.7704 H   0  0
   17.2306    0.3853   -8.5166 H   0  0
   14.7361    3.3065  -10.3782 H   0  0
   20.5061    1.2080  -13.3019 H   0  0
   21.0341   -0.7882   -9.3014 H   0  0
   21.2299   -0.8487  -13.5701 H   0  0
   23.0309   -2.4379  -13.5014 H   0  0
   25.2119   -3.0375  -12.9544 H   0  0
   24.0830   -4.4187  -13.0728 H   0  0
   25.6001   -4.5759  -12.1937 H   0  0
  1 16  1  0
  1 24  1  0
  2 21  1  0
  2 25  1  0
  3 21  1  0
  3 26  1  0
  4 17  1  0
  5 18  1  0
  6 24  1  0
  6 28  1  0
  7 19  1  0
  8 20  1  0
  9 22  1  0
 10 23  1  0
 11 31  1  0
 11 35  1  0
 12 32  1  0
 13 34  2  0
 14 42  1  0
 14 43  1  0
 15 40  1  0
 16 17  1  0
 16 26  1  0
 17 18  1  0
 18 19  1  0
 19 24  1  0
 20 21  1  0
 20 22  1  0
 22 23  1  0
 23 25  1  0
 25 27  1  0
 28 29  2  0
 28 30  1  0
 29 31  1  0
 30 32  2  0
 31 33  2  0
 32 33  1  0
 33 34  1  0
 34 36  1  0
 35 36  2  0
 35 37  1  0
 37 38  2  0
 37 39  1  0
 38 40  1  0
 39 41  2  0
 40 42  2  0
 41 42  1  0
  4 44  1  0
  5 45  1  0
  7 46  1  0
  8 47  1  0
  9 48  1  0
 10 49  1  0
 12 50  1  0
 15 51  1  0
 16 52  1  0
 17 53  1  0
 18 54  1  0
 19 55  1  0
 20 56  1  0
 21 57  1  0
 22 58  1  0
 23 59  1  0
 24 60  1  0
 25 61  1  0
 26 62  1  0
 26 63  1  0
 27 64  1  0
 27 65  1  0
 27 66  1  0
 29 67  1  0
 30 68  1  0
 36 69  1  0
 38 70  1  0
 39 71  1  0
 41 72  1  0
 43 73  1  0
 43 74  1  0
 43 75  1  0
M  END
> <Name>
5281613

> <Binding Energy>
-68.1246

> <Ligand Energy>
79.2623

> <Protein Energy>
-7801.1566

> <Complex Energy>
-7790.0189

> <Complex Entropy>
-31.4951

> <Protein Entropy>
-31.4717

> <Ligand Entropy>
-21.4766

> <Entropic Energy>
21.4532

> <AbsoluteEnergy>
68.2552

> <ConfNumber>
14

> <Ionization pH>
7.5

> <IonizationIndex>
1

> <MOL_NUMBER>
813

> <NumberOfIonizations>
1

> <NumberOfStereoisomers>
1

> <NumberOfTautomers>
2

> <PUBCHEM_ATOM_DEF_STEREO_COUNT>
10

> <PUBCHEM_ATOM_UDEF_STEREO_COUNT>
0

> <PUBCHEM_BONDANNOTATIONS>
23  10  5
11  31  8
11  35  8
16  26  5
25  27  6
28  29  8
28  30  8
29  31  8
21  3  5
30  32  8
31  33  8
32  33  8
33  34  8
34  36  8
35  36  8
37  38  8
37  39  8
38  40  8
39  41  8
17  4  6
40  42  8
41  42  8
18  5  5
24  6  5
19  7  6
20  8  6
22  9  6

> <PUBCHEM_BOND_DEF_STEREO_COUNT>
0

> <PUBCHEM_BOND_UDEF_STEREO_COUNT>
0

> <PUBCHEM_CACTVS_COMPLEXITY>
995

> <PUBCHEM_CACTVS_HBOND_ACCEPTOR>
15

> <PUBCHEM_CACTVS_HBOND_DONOR>
8

> <PUBCHEM_CACTVS_ROTATABLE_BOND>
7

> <PUBCHEM_CACTVS_SUBSKEYS>
AAADcfB4PAAAAAAAAAAAAAAAAAAAAAAAAAA0aIECAAAAAACBQAAAGgAACAAADBSwmAMyDoAABgCIAqBSAAACCAAkIAAIiAEGiMgdNzaGNRqieWOl4BUPuQfI7LzOIAABCAAIQABAAAIQABCAAAAAAAAAAA==

> <PUBCHEM_CACTVS_TAUTO_COUNT>
-1

> <PUBCHEM_CACTVS_TPSA>
234

> <PUBCHEM_COMPONENT_COUNT>
1

> <PUBCHEM_COMPOUND_CANONICALIZED>
1

> <PUBCHEM_COMPOUND_CID>
5281613

> <PUBCHEM_COORDINATE_TYPE>
1
5
255

> <PUBCHEM_EXACT_MASS>
608.17412031

> <PUBCHEM_HEAVY_ATOM_COUNT>
43

> <PUBCHEM_ISOTOPIC_ATOM_COUNT>
0

> <PUBCHEM_IUPAC_CAS_NAME>
5-hydroxy-2-(3-hydroxy-4-methoxyphenyl)-7-[[(2S,3R,4S,5S,6R)-3,4,5-trihydroxy-6-[[(2R,3R,4R,5R,6S)-3,4,5-trihydroxy-6-methyl-2-oxanyl]oxymethyl]-2-oxanyl]oxy]-1-benzopyran-4-one

> <PUBCHEM_IUPAC_INCHI>
InChI=1S/C28H32O15/c1-10-21(32)23(34)25(36)27(40-10)39-9-19-22(33)24(35)26(37)28(43-19)41-12-6-14(30)20-15(31)8-17(42-18(20)7-12)11-3-4-16(38-2)13(29)5-11/h3-8,10,19,21-30,32-37H,9H2,1-2H3/t10-,19+,21
-,22+,23+,24-,25+,26+,27+,28+/m0/s1

> <PUBCHEM_IUPAC_INCHIKEY>
GZSOSUNBTXMUFQ-YFAPSIMESA-N

> <PUBCHEM_IUPAC_NAME>
5-hydroxy-2-(3-hydroxy-4-methoxyphenyl)-7-[(2S,3R,4S,5S,6R)-3,4,5-trihydroxy-6-[[(2R,3R,4R,5R,6S)-3,4,5-trihydroxy-6-methyloxan-2-yl]oxymethyl]oxan-2-yl]oxychromen-4-one

> <PUBCHEM_IUPAC_NAME_MARKUP>
5-hydroxy-2-(3-hydroxy-4-methoxyphenyl)-7-[(2<I>S</I>,3<I>R</I>,4<I>S</I>,5<I>S</I>,6<I>R</I>)-3,4,5-trihydroxy-6-[[(2<I>R</I>,3<I>R</I>,4<I>R</I>,5<I>R</I>,6<I>S</I>)-3,4,5-trihydroxy-6-methyloxan-2-
yl]oxymethyl]oxan-2-yl]oxychromen-4-one

> <PUBCHEM_IUPAC_OPENEYE_NAME>
5-hydroxy-2-(3-hydroxy-4-methoxy-phenyl)-7-[(2S,3R,4S,5S,6R)-3,4,5-trihydroxy-6-[[(2R,3R,4R,5R,6S)-3,4,5-trihydroxy-6-methyl-tetrahydropyran-2-yl]oxymethyl]tetrahydropyran-2-yl]oxy-chromen-4-one

> <PUBCHEM_IUPAC_SYSTEMATIC_NAME>
2-(4-methoxy-3-oxidanyl-phenyl)-7-[(2S,3R,4S,5S,6R)-6-[[(2R,3R,4R,5R,6S)-6-methyl-3,4,5-tris(oxidanyl)oxan-2-yl]oxymethyl]-3,4,5-tris(oxidanyl)oxan-2-yl]oxy-5-oxidanyl-chromen-4-one

> <PUBCHEM_IUPAC_TRADITIONAL_NAME>
5-hydroxy-2-(3-hydroxy-4-methoxy-phenyl)-7-[(2S,3R,4S,5S,6R)-3,4,5-trihydroxy-6-[[(2R,3R,4R,5R,6S)-3,4,5-trihydroxy-6-methyl-tetrahydropyran-2-yl]oxymethyl]tetrahydropyran-2-yl]oxy-chromone

> <PUBCHEM_MOLECULAR_FORMULA>
C28H32O15

> <PUBCHEM_MOLECULAR_WEIGHT>
608.5

> <PUBCHEM_MONOISOTOPIC_WEIGHT>
608.17412031

> <PUBCHEM_OPENEYE_CAN_SMILES>
CC1C(C(C(C(O1)OCC2C(C(C(C(O2)OC3=CC(=C4C(=C3)OC(=CC4=O)C5=CC(=C(C=C5)OC)O)O)O)O)O)O)O)O

> <PUBCHEM_OPENEYE_ISO_SMILES>
C[C@H]1[C@@H]([C@H]([C@H]([C@@H](O1)OC[C@@H]2[C@H]([C@@H]([C@H]([C@@H](O2)OC3=CC(=C4C(=C3)OC(=CC4=O)C5=CC(=C(C=C5)OC)O)O)O)O)O)O)O)O

> <PUBCHEM_TOTAL_CHARGE>
0

> <PUBCHEM_XLOGP3_AA>
-0.8

> <RelativeEnergy>
3.7833

> <StereoisomerIndex>
1

> <TautomerIndex>
1

> <POSE_NUMBER>
1

> <LibDockScore>
110.7305

> <HotSpots>
11.01,5.47,-15.65,P,18,8
24.21,-1.73,-8.05,P,38,15
7.61,3.27,-13.26,A,25,27

> <-In-Situ Starting Energy>
-3173.8836

> <-In-Situ Final Energy>
0.958617709

> <In-Situ Gradient>
0.0009805234565

> <Favorable Total>
10

> <Unfavorable Total>
0

> <Charge Total>
0

> <Hydrophobic Total>
4

> <HydrogenBond Total>
6

> <Other Total>
0

> <Favorable A:LYS6>
0

> <Favorable A:ARG55>
0

> <Favorable A:LEU58>
0

> <Favorable A:LEU61>
1

> <Favorable A:ILE62>
0

> <Favorable A:GLY64>
0

> <Favorable A:SER65>
0

> <Favorable A:TRP66>
0

> <Favorable A:SER69>
0

> <Favorable A:VAL70>
0

> <Favorable A:PRO73>
0

> <Favorable A:ALA74>
0

> <Favorable A:PHE76>
0

> <Favorable A:ALA77>
0

> <Favorable A:THR78>
0

> <Favorable A:GLU79>
0

> <Favorable A:PHE82>
0

> <Favorable A:ARG83>
0

> <Favorable A:LEU85>
0

> <Favorable A:THR86>
0

> <Favorable A:TRP89>
2

> <Favorable A:THR90>
0

> <Favorable A:ASN93>
0

> <Favorable A:HIS94>
0

> <Favorable A:SER96>
0

> <Favorable A:VAL97>
0

> <Favorable A:TRP98>
0

> <Favorable A:PHE140>
0

> <Favorable A:LEU141>
0

> <Favorable A:ASN144>
0

> <Favorable A:ILE148>
0

> <Favorable A:ILE150>
0

> <Favorable A:HIS151>
0

> <Favorable A:ILE152>
0

> <Favorable A:ALA154>
0

> <Favorable A:SER155>
0

> <Favorable A:ILE156>
0

> <Favorable A:GLY158>
0

> <Favorable A:TYR159>
0

> <Favorable A:ARG160>
0

> <Favorable A:ARG161>
0

> <Favorable A:ASN162>
0

> <Favorable A:LYS163>
0

> <Favorable A:SER167>
0

> <Favorable A:ASP168>
0

> <Favorable A:SER169>
0

> <Favorable A:ASN171>
0

> <Favorable A:PHE172>
0

> <Favorable A:THR173>
0

> <Favorable A:ARG174>
0

> <Favorable A:PHE175>
0

> <Favorable A:SER176>
0

> <Favorable A:SER177>
0

> <Favorable A:LEU178>
0

> <Favorable A:ILE179>
0

> <Favorable A:VAL180>
0

> <Favorable A:LEU181>
0

> <Favorable A:SER183>
0

> <Favorable A:THR184>
0

> <Favorable A:PHE186>
0

> <Favorable A:ILE187>
0

> <Favorable A:PHE188>
0

> <Favorable A:ILE189>
0

> <Favorable A:PRO190>
0

> <Favorable A:PHE191>
0

> <Favorable A:TYR240>
0

> <Favorable A:PHE243>
0

> <Favorable A:SER244>
0

> <Favorable A:PHE247>
0

> <Favorable A:PHE248>
0

> <Favorable A:VAL251>
0

> <Favorable A:TRP252>
0

> <Favorable A:SER254>
1

> <Favorable A:GLU255>
0

> <Favorable A:ARG256>
0

> <Favorable A:LEU257>
2

> <Favorable A:GLU258>
0

> <Favorable A:GLU259>
0

> <Favorable A:LEU261>
0

> <Favorable A:ILE262>
1

> <Favorable A:ILE263>
0

> <Favorable A:SER265>
3

> <Favorable A:GLN266>
0

> <Favorable A:MET268>
0

> <Favorable A:GLY269>
0

> <Favorable A:TYR272>
0

> <Favorable A:PRO273>
0

> <Unfavorable A:ARG55>
0

> <Unfavorable A:PRO73>
0

> <Unfavorable A:PHE76>
0

> <Unfavorable A:GLU79>
0

> <Unfavorable A:ARG83>
0

> <Unfavorable A:THR86>
0

> <Unfavorable A:TRP89>
0

> <Unfavorable A:THR90>
0

> <Unfavorable A:ASN93>
0

> <Unfavorable A:TRP98>
0

> <Unfavorable A:ASN144>
0

> <Unfavorable A:SER155>
0

> <Unfavorable A:GLY158>
0

> <Unfavorable A:TYR159>
0

> <Unfavorable A:ASN162>
0

> <Unfavorable A:ASP168>
0

> <Unfavorable A:ASN171>
0

> <Unfavorable A:THR173>
0

> <Unfavorable A:ARG174>
0

> <Unfavorable A:SER183>
0

> <Unfavorable A:THR184>
0

> <Unfavorable A:PHE186>
0

> <Unfavorable A:SER244>
0

> <Unfavorable A:SER254>
0

> <Unfavorable A:GLU255>
0

> <Unfavorable A:SER265>
0

> <Unfavorable A:GLN266>
0

> <Unfavorable A:GLY269>
0

> <Charge A:ARG55>
0

> <Charge A:PHE76>
0

> <Charge A:GLU79>
0

> <Charge A:PHE82>
0

> <Charge A:ARG83>
0

> <Charge A:TRP89>
0

> <Charge A:HIS94>
0

> <Charge A:TRP98>
0

> <Charge A:TYR159>
0

> <Charge A:ARG161>
0

> <Charge A:LYS163>
0

> <Charge A:ASP168>
0

> <Charge A:PHE172>
0

> <Charge A:ARG174>
0

> <Charge A:PHE175>
0

> <Charge A:PHE188>
0

> <Charge A:PHE247>
0

> <Charge A:PHE248>
0

> <Hydrophobic A:LEU58>
0

> <Hydrophobic A:LEU61>
1

> <Hydrophobic A:ILE62>
0

> <Hydrophobic A:TRP66>
0

> <Hydrophobic A:VAL70>
0

> <Hydrophobic A:PRO73>
0

> <Hydrophobic A:ALA74>
0

> <Hydrophobic A:PHE76>
0

> <Hydrophobic A:ALA77>
0

> <Hydrophobic A:THR78>
0

> <Hydrophobic A:PHE82>
0

> <Hydrophobic A:ARG83>
0

> <Hydrophobic A:LEU85>
0

> <Hydrophobic A:TRP89>
2

> <Hydrophobic A:THR90>
0

> <Hydrophobic A:ASN93>
0

> <Hydrophobic A:HIS94>
0

> <Hydrophobic A:VAL97>
0

> <Hydrophobic A:TRP98>
0

> <Hydrophobic A:PHE140>
0

> <Hydrophobic A:LEU141>
0

> <Hydrophobic A:ILE148>
0

> <Hydrophobic A:ILE150>
0

> <Hydrophobic A:HIS151>
0

> <Hydrophobic A:ILE152>
0

> <Hydrophobic A:ALA154>
0

> <Hydrophobic A:SER155>
0

> <Hydrophobic A:ILE156>
0

> <Hydrophobic A:GLY158>
0

> <Hydrophobic A:TYR159>
0

> <Hydrophobic A:ARG160>
0

> <Hydrophobic A:ARG161>
0

> <Hydrophobic A:ASP168>
0

> <Hydrophobic A:ASN171>
0

> <Hydrophobic A:PHE172>
0

> <Hydrophobic A:ARG174>
0

> <Hydrophobic A:PHE175>
0

> <Hydrophobic A:LEU178>
0

> <Hydrophobic A:ILE179>
0

> <Hydrophobic A:VAL180>
0

> <Hydrophobic A:LEU181>
0

> <Hydrophobic A:PHE186>
0

> <Hydrophobic A:ILE187>
0

> <Hydrophobic A:PHE188>
0

> <Hydrophobic A:ILE189>
0

> <Hydrophobic A:PRO190>
0

> <Hydrophobic A:PHE191>
0

> <Hydrophobic A:TYR240>
0

> <Hydrophobic A:PHE243>
0

> <Hydrophobic A:PHE247>
0

> <Hydrophobic A:PHE248>
0

> <Hydrophobic A:VAL251>
0

> <Hydrophobic A:TRP252>
0

> <Hydrophobic A:SER254>
0

> <Hydrophobic A:LEU261>
0

> <Hydrophobic A:ILE262>
1

> <Hydrophobic A:ILE263>
0

> <Hydrophobic A:TYR272>
0

> <Hydrophobic A:PRO273>
0

> <HydrogenBond A:LYS6>
0

> <HydrogenBond A:ARG55>
0

> <HydrogenBond A:GLY64>
0

> <HydrogenBond A:SER65>
0

> <HydrogenBond A:TRP66>
0

> <HydrogenBond A:SER69>
0

> <HydrogenBond A:PRO73>
0

> <HydrogenBond A:ALA74>
0

> <HydrogenBond A:PHE76>
0

> <HydrogenBond A:ALA77>
0

> <HydrogenBond A:THR78>
0

> <HydrogenBond A:GLU79>
0

> <HydrogenBond A:PHE82>
0

> <HydrogenBond A:ARG83>
0

> <HydrogenBond A:LEU85>
0

> <HydrogenBond A:THR86>
0

> <HydrogenBond A:TRP89>
0

> <HydrogenBond A:THR90>
0

> <HydrogenBond A:ASN93>
0

> <HydrogenBond A:HIS94>
0

> <HydrogenBond A:SER96>
0

> <HydrogenBond A:TRP98>
0

> <HydrogenBond A:ASN144>
0

> <HydrogenBond A:HIS151>
0

> <HydrogenBond A:ILE152>
0

> <HydrogenBond A:ALA154>
0

> <HydrogenBond A:SER155>
0

> <HydrogenBond A:ILE156>
0

> <HydrogenBond A:GLY158>
0

> <HydrogenBond A:TYR159>
0

> <HydrogenBond A:ASN162>
0

> <HydrogenBond A:LYS163>
0

> <HydrogenBond A:SER167>
0

> <HydrogenBond A:ASP168>
0

> <HydrogenBond A:SER169>
0

> <HydrogenBond A:ASN171>
0

> <HydrogenBond A:PHE172>
0

> <HydrogenBond A:THR173>
0

> <HydrogenBond A:ARG174>
0

> <HydrogenBond A:PHE175>
0

> <HydrogenBond A:SER176>
0

> <HydrogenBond A:SER177>
0

> <HydrogenBond A:ILE179>
0

> <HydrogenBond A:VAL180>
0

> <HydrogenBond A:SER183>
0

> <HydrogenBond A:THR184>
0

> <HydrogenBond A:PHE186>
0

> <HydrogenBond A:ILE187>
0

> <HydrogenBond A:PRO190>
0

> <HydrogenBond A:TYR240>
0

> <HydrogenBond A:PHE243>
0

> <HydrogenBond A:SER244>
0

> <HydrogenBond A:PHE247>
0

> <HydrogenBond A:VAL251>
0

> <HydrogenBond A:SER254>
1

> <HydrogenBond A:GLU255>
0

> <HydrogenBond A:ARG256>
0

> <HydrogenBond A:LEU257>
2

> <HydrogenBond A:GLU258>
0

> <HydrogenBond A:GLU259>
0

> <HydrogenBond A:ILE262>
0

> <HydrogenBond A:SER265>
3

> <HydrogenBond A:GLN266>
0

> <HydrogenBond A:MET268>
0

> <HydrogenBond A:GLY269>
0

> <HydrogenBond A:PRO273>
0

> <Other A:SER69>
0

> <Other A:TRP89>
0

> <Other A:TYR159>
0

> <Other A:PHE172>
0

> <Other A:SER176>
0

> <Other A:SER265>
0

$$$$
5282945
  SciTegic09122300493D

 52 51  0  0  0  0            999 V2000
   10.9249    6.0327   -6.8634 O   0  0  0  1  0  0
   10.5864    3.6444  -11.8165 O   0  5  0  1  0  0
   11.5745    5.4643  -12.4299 O   0  0  0  1  0  0
   12.0169    3.2403   -7.0045 C   0  0  0  1  0  0
   13.3015    3.0581   -7.8302 C   0  0  0  1  0  0
   12.2722    3.8062   -5.5966 C   0  0  0  1  0  0
   13.0937    3.3464   -9.3277 C   0  0  0  1  0  0
   11.0228    4.4597   -4.9670 C   0  0  0  1  0  0
   12.7957    4.8345   -9.6143 C   0  0  0  1  0  0
   10.7966    5.8886   -5.4723 C   0  0  2  1  0  0
   11.3569    5.1031  -10.0907 C   0  0  0  1  0  0
    9.5009    6.5364   -4.9933 C   0  0  0  1  0  0
    7.1478   10.2721   -0.8467 C   0  0  0  1  0  0
    6.4955   11.6615   -0.6956 C   0  0  0  1  0  0
    6.7098    9.5728   -2.1559 C   0  0  0  1  0  0
    6.8035   12.5234    0.5563 C   0  0  0  1  0  0
    9.1979    7.8024   -4.6147 C   0  0  0  1  0  0
   11.1582    4.7026  -11.5590 C   0  0  0  1  0  0
    7.8000    9.3425   -3.1779 C   0  0  0  1  0  0
    8.0627    8.1516   -3.7450 C   0  0  0  1  0  0
    6.2360   13.9417    0.5300 C   0  0  0  1  0  0
   11.0399    6.9491   -7.1034 H   0  0
   11.4751    2.2966   -6.9422 H   0  0
   11.3501    3.9043   -7.5428 H   0  0
   13.6796    2.0447   -7.6921 H   0  0
   14.0845    3.7214   -7.4631 H   0  0
   12.6514    3.0022   -4.9672 H   0  0
   13.0701    4.5491   -5.6339 H   0  0
   13.9992    3.0627   -9.8650 H   0  0
   12.3021    2.7119   -9.7295 H   0  0
   11.1676    4.5711   -3.8934 H   0  0
   10.1590    3.8077   -5.0847 H   0  0
   12.9809    5.4244   -8.7161 H   0  0
   13.4971    5.2179  -10.3570 H   0  0
   11.6904    6.2986   -5.0262 H   0  0
   11.1206    6.1628   -9.9942 H   0  0
   10.6382    4.5661   -9.4753 H   0  0
    8.7544    5.7904   -4.7872 H   0  0
    6.8732    9.6575    0.0116 H   0  0
    8.2291   10.3249   -0.8377 H   0  0
    6.7401   12.2432   -1.5844 H   0  0
    5.4338   11.4420   -0.6934 H   0  0
    6.2569    8.6152   -1.8925 H   0  0
    5.9220   10.1459   -2.6362 H   0  0
    7.8496   12.7332    0.6681 H   0  0
    6.5172   12.0009    1.4686 H   0  0
    9.7727    8.6565   -4.9021 H   0  0
    8.4828   10.1538   -3.3142 H   0  0
    7.4434    7.3235   -3.4974 H   0  0
    5.2051   14.0265    0.8472 H   0  0
    6.3344   14.3742   -0.4658 H   0  0
    6.7876   14.5636    1.2361 H   0  0
  1 10  1  0
  2 18  1  0
  3 18  2  0
  4  5  1  0
  4  6  1  0
  5  7  1  0
  6  8  1  0
  7  9  1  0
  8 10  1  0
  9 11  1  0
 10 12  1  0
 11 18  1  0
 12 17  2  0
 13 14  1  0
 13 15  1  0
 14 16  1  0
 15 19  1  0
 16 21  1  0
 17 20  1  0
 19 20  2  0
  1 22  1  0
  4 23  1  0
  4 24  1  0
  5 25  1  0
  5 26  1  0
  6 27  1  0
  6 28  1  0
  7 29  1  0
  7 30  1  0
  8 31  1  0
  8 32  1  0
  9 33  1  0
  9 34  1  0
 10 35  1  0
 11 36  1  0
 11 37  1  0
 12 38  1  0
 13 39  1  0
 13 40  1  0
 14 41  1  0
 14 42  1  0
 15 43  1  0
 15 44  1  0
 16 45  1  0
 16 46  1  0
 17 47  1  0
 19 48  1  0
 20 49  1  0
 21 50  1  0
 21 51  1  0
 21 52  1  0
M  CHG  1   2  -1
M  END
> <Name>
5282945

> <Binding Energy>
-31.1674

> <Ligand Energy>
33.7832

> <Protein Energy>
-7801.1566

> <Complex Energy>
-7798.5408

> <Complex Entropy>
-31.4811

> <Protein Entropy>
-31.4717

> <Ligand Entropy>
-19.9303

> <Entropic Energy>
19.9209

> <AbsoluteEnergy>
22.8492

> <ConfNumber>
103

> <Ionization pH>
7.5

> <IonizationIndex>
1

> <MOL_NUMBER>
836

> <NumberOfIonizations>
1

> <NumberOfStereoisomers>
2

> <NumberOfTautomers>
1

> <PUBCHEM_ATOM_DEF_STEREO_COUNT>
0

> <PUBCHEM_ATOM_UDEF_STEREO_COUNT>
1

> <PUBCHEM_BONDANNOTATIONS>
10  34  3

> <PUBCHEM_BOND_DEF_STEREO_COUNT>
2

> <PUBCHEM_BOND_UDEF_STEREO_COUNT>
0

> <PUBCHEM_CACTVS_COMPLEXITY>
295

> <PUBCHEM_CACTVS_HBOND_ACCEPTOR>
3

> <PUBCHEM_CACTVS_HBOND_DONOR>
2

> <PUBCHEM_CACTVS_ROTATABLE_BOND>
14

> <PUBCHEM_CACTVS_SUBSKEYS>
AAADcfB4MAAAAAAAAAAAAAAAAAAAAAAAAAAAAAAAAAAAAAAAAAAAGgAACAAACBSggAICCAAAAgCIACDSCAAAAAAgAAAICAEAAAgIFBIAAQAAUAAEgAAIkAOIyKCAAAAAAAAAAAAAAAAAAAAAAAAAAAAAAA==

> <PUBCHEM_CACTVS_TAUTO_COUNT>
1

> <PUBCHEM_CACTVS_TPSA>
57.5

> <PUBCHEM_COMPONENT_COUNT>
1

> <PUBCHEM_COMPOUND_CANONICALIZED>
1

> <PUBCHEM_COMPOUND_CID>
5282945

> <PUBCHEM_COORDINATE_TYPE>
1
5
255

> <PUBCHEM_EXACT_MASS>
296.23514488

> <PUBCHEM_HEAVY_ATOM_COUNT>
21

> <PUBCHEM_ISOTOPIC_ATOM_COUNT>
0

> <PUBCHEM_IUPAC_CAS_NAME>
(10E,12E)-9-hydroxyoctadeca-10,12-dienoic acid

> <PUBCHEM_IUPAC_INCHI>
InChI=1S/C18H32O3/c1-2-3-4-5-6-8-11-14-17(19)15-12-9-7-10-13-16-18(20)21/h6,8,11,14,17,19H,2-5,7,9-10,12-13,15-16H2,1H3,(H,20,21)/b8-6+,14-11+

> <PUBCHEM_IUPAC_INCHIKEY>
NPDSHTNEKLQQIJ-SIGMCMEVSA-N

> <PUBCHEM_IUPAC_NAME>
(10E,12E)-9-hydroxyoctadeca-10,12-dienoic acid

> <PUBCHEM_IUPAC_NAME_MARKUP>
(10<I>E</I>,12<I>E</I>)-9-hydroxyoctadeca-10,12-dienoic acid

> <PUBCHEM_IUPAC_OPENEYE_NAME>
(10E,12E)-9-hydroxyoctadeca-10,12-dienoic acid

> <PUBCHEM_IUPAC_SYSTEMATIC_NAME>
(10E,12E)-9-oxidanyloctadeca-10,12-dienoic acid

> <PUBCHEM_IUPAC_TRADITIONAL_NAME>
(10E,12E)-9-hydroxyoctadeca-10,12-dienoic acid

> <PUBCHEM_MOLECULAR_FORMULA>
C18H32O3

> <PUBCHEM_MOLECULAR_WEIGHT>
296.4

> <PUBCHEM_MONOISOTOPIC_WEIGHT>
296.23514488

> <PUBCHEM_OPENEYE_CAN_SMILES>
CCCCCC=CC=CC(CCCCCCCC(=O)O)O

> <PUBCHEM_OPENEYE_ISO_SMILES>
CCCCC/C=C/C=C/C(CCCCCCCC(=O)O)O

> <PUBCHEM_TOTAL_CHARGE>
0

> <PUBCHEM_XLOGP3_AA>
5.3

> <RelativeEnergy>
12.305

> <StereoisomerIndex>
2

> <TautomerIndex>
1

> <POSE_NUMBER>
9

> <LibDockScore>
113.4852

> <HotSpots>
7.21,9.27,-3.25,A,45,15
6.41,11.47,-0.06,A,67,16
8.41,8.07,-4.86,A,38,20

> <-In-Situ Starting Energy>
-192596.971

> <-In-Situ Final Energy>
-10.7092601

> <In-Situ Gradient>
0.0009992273242

> <Favorable Total>
10

> <Unfavorable Total>
0

> <Charge Total>
2

> <Hydrophobic Total>
5

> <HydrogenBond Total>
3

> <Other Total>
0

> <Favorable A:LYS6>
0

> <Favorable A:ARG55>
0

> <Favorable A:LEU58>
0

> <Favorable A:LEU61>
0

> <Favorable A:ILE62>
0

> <Favorable A:GLY64>
0

> <Favorable A:SER65>
0

> <Favorable A:TRP66>
0

> <Favorable A:SER69>
0

> <Favorable A:VAL70>
0

> <Favorable A:PRO73>
0

> <Favorable A:ALA74>
0

> <Favorable A:PHE76>
0

> <Favorable A:ALA77>
0

> <Favorable A:THR78>
0

> <Favorable A:GLU79>
0

> <Favorable A:PHE82>
0

> <Favorable A:ARG83>
0

> <Favorable A:LEU85>
0

> <Favorable A:THR86>
2

> <Favorable A:TRP89>
2

> <Favorable A:THR90>
0

> <Favorable A:ASN93>
0

> <Favorable A:HIS94>
1

> <Favorable A:SER96>
0

> <Favorable A:VAL97>
0

> <Favorable A:TRP98>
2

> <Favorable A:PHE140>
1

> <Favorable A:LEU141>
0

> <Favorable A:ASN144>
0

> <Favorable A:ILE148>
0

> <Favorable A:ILE150>
0

> <Favorable A:HIS151>
0

> <Favorable A:ILE152>
0

> <Favorable A:ALA154>
0

> <Favorable A:SER155>
0

> <Favorable A:ILE156>
0

> <Favorable A:GLY158>
0

> <Favorable A:TYR159>
0

> <Favorable A:ARG160>
0

> <Favorable A:ARG161>
0

> <Favorable A:ASN162>
0

> <Favorable A:LYS163>
0

> <Favorable A:SER167>
0

> <Favorable A:ASP168>
0

> <Favorable A:SER169>
0

> <Favorable A:ASN171>
0

> <Favorable A:PHE172>
0

> <Favorable A:THR173>
0

> <Favorable A:ARG174>
0

> <Favorable A:PHE175>
0

> <Favorable A:SER176>
0

> <Favorable A:SER177>
0

> <Favorable A:LEU178>
0

> <Favorable A:ILE179>
0

> <Favorable A:VAL180>
0

> <Favorable A:LEU181>
0

> <Favorable A:SER183>
1

> <Favorable A:THR184>
0

> <Favorable A:PHE186>
1

> <Favorable A:ILE187>
0

> <Favorable A:PHE188>
0

> <Favorable A:ILE189>
0

> <Favorable A:PRO190>
0

> <Favorable A:PHE191>
0

> <Favorable A:TYR240>
0

> <Favorable A:PHE243>
0

> <Favorable A:SER244>
0

> <Favorable A:PHE247>
0

> <Favorable A:PHE248>
0

> <Favorable A:VAL251>
0

> <Favorable A:TRP252>
0

> <Favorable A:SER254>
0

> <Favorable A:GLU255>
0

> <Favorable A:ARG256>
0

> <Favorable A:LEU257>
0

> <Favorable A:GLU258>
0

> <Favorable A:GLU259>
0

> <Favorable A:LEU261>
0

> <Favorable A:ILE262>
0

> <Favorable A:ILE263>
0

> <Favorable A:SER265>
0

> <Favorable A:GLN266>
0

> <Favorable A:MET268>
0

> <Favorable A:GLY269>
0

> <Favorable A:TYR272>
0

> <Favorable A:PRO273>
0

> <Unfavorable A:ARG55>
0

> <Unfavorable A:PRO73>
0

> <Unfavorable A:PHE76>
0

> <Unfavorable A:GLU79>
0

> <Unfavorable A:ARG83>
0

> <Unfavorable A:THR86>
0

> <Unfavorable A:TRP89>
0

> <Unfavorable A:THR90>
0

> <Unfavorable A:ASN93>
0

> <Unfavorable A:TRP98>
0

> <Unfavorable A:ASN144>
0

> <Unfavorable A:SER155>
0

> <Unfavorable A:GLY158>
0

> <Unfavorable A:TYR159>
0

> <Unfavorable A:ASN162>
0

> <Unfavorable A:ASP168>
0

> <Unfavorable A:ASN171>
0

> <Unfavorable A:THR173>
0

> <Unfavorable A:ARG174>
0

> <Unfavorable A:SER183>
0

> <Unfavorable A:THR184>
0

> <Unfavorable A:PHE186>
0

> <Unfavorable A:SER244>
0

> <Unfavorable A:SER254>
0

> <Unfavorable A:GLU255>
0

> <Unfavorable A:SER265>
0

> <Unfavorable A:GLN266>
0

> <Unfavorable A:GLY269>
0

> <Charge A:ARG55>
0

> <Charge A:PHE76>
0

> <Charge A:GLU79>
0

> <Charge A:PHE82>
0

> <Charge A:ARG83>
0

> <Charge A:TRP89>
2

> <Charge A:HIS94>
0

> <Charge A:TRP98>
0

> <Charge A:TYR159>
0

> <Charge A:ARG161>
0

> <Charge A:LYS163>
0

> <Charge A:ASP168>
0

> <Charge A:PHE172>
0

> <Charge A:ARG174>
0

> <Charge A:PHE175>
0

> <Charge A:PHE188>
0

> <Charge A:PHE247>
0

> <Charge A:PHE248>
0

> <Hydrophobic A:LEU58>
0

> <Hydrophobic A:LEU61>
0

> <Hydrophobic A:ILE62>
0

> <Hydrophobic A:TRP66>
0

> <Hydrophobic A:VAL70>
0

> <Hydrophobic A:PRO73>
0

> <Hydrophobic A:ALA74>
0

> <Hydrophobic A:PHE76>
0

> <Hydrophobic A:ALA77>
0

> <Hydrophobic A:THR78>
0

> <Hydrophobic A:PHE82>
0

> <Hydrophobic A:ARG83>
0

> <Hydrophobic A:LEU85>
0

> <Hydrophobic A:TRP89>
0

> <Hydrophobic A:THR90>
0

> <Hydrophobic A:ASN93>
0

> <Hydrophobic A:HIS94>
1

> <Hydrophobic A:VAL97>
0

> <Hydrophobic A:TRP98>
2

> <Hydrophobic A:PHE140>
1

> <Hydrophobic A:LEU141>
0

> <Hydrophobic A:ILE148>
0

> <Hydrophobic A:ILE150>
0

> <Hydrophobic A:HIS151>
0

> <Hydrophobic A:ILE152>
0

> <Hydrophobic A:ALA154>
0

> <Hydrophobic A:SER155>
0

> <Hydrophobic A:ILE156>
0

> <Hydrophobic A:GLY158>
0

> <Hydrophobic A:TYR159>
0

> <Hydrophobic A:ARG160>
0

> <Hydrophobic A:ARG161>
0

> <Hydrophobic A:ASP168>
0

> <Hydrophobic A:ASN171>
0

> <Hydrophobic A:PHE172>
0

> <Hydrophobic A:ARG174>
0

> <Hydrophobic A:PHE175>
0

> <Hydrophobic A:LEU178>
0

> <Hydrophobic A:ILE179>
0

> <Hydrophobic A:VAL180>
0

> <Hydrophobic A:LEU181>
0

> <Hydrophobic A:PHE186>
1

> <Hydrophobic A:ILE187>
0

> <Hydrophobic A:PHE188>
0

> <Hydrophobic A:ILE189>
0

> <Hydrophobic A:PRO190>
0

> <Hydrophobic A:PHE191>
0

> <Hydrophobic A:TYR240>
0

> <Hydrophobic A:PHE243>
0

> <Hydrophobic A:PHE247>
0

> <Hydrophobic A:PHE248>
0

> <Hydrophobic A:VAL251>
0

> <Hydrophobic A:TRP252>
0

> <Hydrophobic A:SER254>
0

> <Hydrophobic A:LEU261>
0

> <Hydrophobic A:ILE262>
0

> <Hydrophobic A:ILE263>
0

> <Hydrophobic A:TYR272>
0

> <Hydrophobic A:PRO273>
0

> <HydrogenBond A:LYS6>
0

> <HydrogenBond A:ARG55>
0

> <HydrogenBond A:GLY64>
0

> <HydrogenBond A:SER65>
0

> <HydrogenBond A:TRP66>
0

> <HydrogenBond A:SER69>
0

> <HydrogenBond A:PRO73>
0

> <HydrogenBond A:ALA74>
0

> <HydrogenBond A:PHE76>
0

> <HydrogenBond A:ALA77>
0

> <HydrogenBond A:THR78>
0

> <HydrogenBond A:GLU79>
0

> <HydrogenBond A:PHE82>
0

> <HydrogenBond A:ARG83>
0

> <HydrogenBond A:LEU85>
0

> <HydrogenBond A:THR86>
2

> <HydrogenBond A:TRP89>
0

> <HydrogenBond A:THR90>
0

> <HydrogenBond A:ASN93>
0

> <HydrogenBond A:HIS94>
0

> <HydrogenBond A:SER96>
0

> <HydrogenBond A:TRP98>
0

> <HydrogenBond A:ASN144>
0

> <HydrogenBond A:HIS151>
0

> <HydrogenBond A:ILE152>
0

> <HydrogenBond A:ALA154>
0

> <HydrogenBond A:SER155>
0

> <HydrogenBond A:ILE156>
0

> <HydrogenBond A:GLY158>
0

> <HydrogenBond A:TYR159>
0

> <HydrogenBond A:ASN162>
0

> <HydrogenBond A:LYS163>
0

> <HydrogenBond A:SER167>
0

> <HydrogenBond A:ASP168>
0

> <HydrogenBond A:SER169>
0

> <HydrogenBond A:ASN171>
0

> <HydrogenBond A:PHE172>
0

> <HydrogenBond A:THR173>
0

> <HydrogenBond A:ARG174>
0

> <HydrogenBond A:PHE175>
0

> <HydrogenBond A:SER176>
0

> <HydrogenBond A:SER177>
0

> <HydrogenBond A:ILE179>
0

> <HydrogenBond A:VAL180>
0

> <HydrogenBond A:SER183>
1

> <HydrogenBond A:THR184>
0

> <HydrogenBond A:PHE186>
0

> <HydrogenBond A:ILE187>
0

> <HydrogenBond A:PRO190>
0

> <HydrogenBond A:TYR240>
0

> <HydrogenBond A:PHE243>
0

> <HydrogenBond A:SER244>
0

> <HydrogenBond A:PHE247>
0

> <HydrogenBond A:VAL251>
0

> <HydrogenBond A:SER254>
0

> <HydrogenBond A:GLU255>
0

> <HydrogenBond A:ARG256>
0

> <HydrogenBond A:LEU257>
0

> <HydrogenBond A:GLU258>
0

> <HydrogenBond A:GLU259>
0

> <HydrogenBond A:ILE262>
0

> <HydrogenBond A:SER265>
0

> <HydrogenBond A:GLN266>
0

> <HydrogenBond A:MET268>
0

> <HydrogenBond A:GLY269>
0

> <HydrogenBond A:PRO273>
0

> <Other A:SER69>
0

> <Other A:TRP89>
0

> <Other A:TYR159>
0

> <Other A:PHE172>
0

> <Other A:SER176>
0

> <Other A:SER265>
0

$$$$
5282948
  SciTegic09122300493D

 52 51  0  0  0  0            999 V2000
    9.4883    9.6957   -4.7875 O   0  0  0  1  0  0
   12.0970    3.2351  -13.1708 O   0  5  0  1  0  0
   11.7752    5.3295  -12.7719 O   0  0  0  1  0  0
   12.6137    6.3167   -8.6589 C   0  0  0  1  0  0
   13.6238    6.1292   -7.5142 C   0  0  0  1  0  0
   12.6397    5.2250   -9.7318 C   0  0  0  1  0  0
   13.5535    4.7820   -6.7624 C   0  0  0  1  0  0
   13.7730    5.4077  -10.7499 C   0  0  0  1  0  0
    6.6929   10.0559   -3.0748 C   0  0  0  1  0  0
    7.8719    9.1001   -3.1564 C   0  0  0  1  0  0
    6.3703   10.4432   -1.6458 C   0  0  0  1  0  0
   12.1459    4.3664   -6.3250 C   0  0  0  1  0  0
    8.3143    8.9372   -4.5899 C   0  0  2  1  0  0
    6.3323    9.2280   -0.7454 C   0  0  0  1  0  0
   13.7586    4.3371  -11.8563 C   0  0  0  1  0  0
   11.5227    5.2880   -5.3122 C   0  0  0  1  0  0
    8.5278    7.5336   -5.0842 C   0  0  0  1  0  0
    5.4074    9.4344    0.4168 C   0  0  0  1  0  0
   10.5313    6.1193   -5.6652 C   0  0  0  1  0  0
    9.6919    6.9440   -4.8058 C   0  0  0  1  0  0
   12.4440    4.3012  -12.6648 C   0  0  0  1  0  0
    9.8594    9.3952   -5.6070 H   0  0
   11.6091    6.3649   -8.2578 H   0  0
   12.7675    7.2890   -9.1270 H   0  0
   14.6276    6.2569   -7.9170 H   0  0
   13.4865    6.9444   -6.8053 H   0  0
   12.6879    4.2330   -9.2849 H   0  0
   11.6848    5.2599  -10.2563 H   0  0
   13.9594    4.0000   -7.4046 H   0  0
   14.2054    4.8202   -5.8889 H   0  0
   14.7329    5.3771  -10.2341 H   0  0
   13.7035    6.3977  -11.2016 H   0  0
    6.8655   10.9530   -3.6691 H   0  0
    5.8506    9.5379   -3.5247 H   0  0
    7.6037    8.1300   -2.7406 H   0  0
    8.7008    9.4911   -2.5666 H   0  0
    7.0841   11.1712   -1.2632 H   0  0
    5.4009   10.9102   -1.6163 H   0  0
   12.1848    3.3623   -5.9017 H   0  0
   11.5058    4.2861   -7.2042 H   0  0
    7.5289    9.3764   -5.1924 H   0  0
    6.0082    8.3341   -1.2806 H   0  0
    7.3359    9.0670   -0.3698 H   0  0
   14.5794    4.5103  -12.5506 H   0  0
   13.9222    3.3530  -11.4161 H   0  0
   11.8365    5.1730   -4.2906 H   0  0
    7.8451    7.1762   -5.8327 H   0  0
    4.3723    9.5272    0.0990 H   0  0
    5.7031   10.3213    0.9741 H   0  0
    5.4831    8.5580    1.0427 H   0  0
   10.3188    6.2482   -6.6968 H   0  0
   10.1377    7.1816   -3.8663 H   0  0
  1 13  1  0
  2 21  1  0
  3 21  2  0
  4  5  1  0
  4  6  1  0
  5  7  1  0
  6  8  1  0
  7 12  1  0
  8 15  1  0
  9 10  1  0
  9 11  1  0
 10 13  1  0
 11 14  1  0
 12 16  1  0
 13 17  1  0
 14 18  1  0
 15 21  1  0
 16 19  2  0
 17 20  2  0
 19 20  1  0
  1 22  1  0
  4 23  1  0
  4 24  1  0
  5 25  1  0
  5 26  1  0
  6 27  1  0
  6 28  1  0
  7 29  1  0
  7 30  1  0
  8 31  1  0
  8 32  1  0
  9 33  1  0
  9 34  1  0
 10 35  1  0
 10 36  1  0
 11 37  1  0
 11 38  1  0
 12 39  1  0
 12 40  1  0
 13 41  1  0
 14 42  1  0
 14 43  1  0
 15 44  1  0
 15 45  1  0
 16 46  1  0
 17 47  1  0
 18 48  1  0
 18 49  1  0
 18 50  1  0
 19 51  1  0
 20 52  1  0
M  CHG  1   2  -1
M  END
> <Name>
5282948

> <Binding Energy>
-33.8973

> <Ligand Energy>
28.3859

> <Protein Energy>
-7801.1566

> <Complex Energy>
-7806.668

> <Complex Entropy>
-31.4813

> <Protein Entropy>
-31.4717

> <Ligand Entropy>
-19.8354

> <Entropic Energy>
19.8258

> <AbsoluteEnergy>
19.1454

> <ConfNumber>
105

> <Ionization pH>
7.5

> <IonizationIndex>
1

> <MOL_NUMBER>
840

> <NumberOfIonizations>
1

> <NumberOfStereoisomers>
2

> <NumberOfTautomers>
1

> <PUBCHEM_ATOM_DEF_STEREO_COUNT>
0

> <PUBCHEM_ATOM_UDEF_STEREO_COUNT>
1

> <PUBCHEM_BONDANNOTATIONS>
13  40  3

> <PUBCHEM_BOND_DEF_STEREO_COUNT>
2

> <PUBCHEM_BOND_UDEF_STEREO_COUNT>
0

> <PUBCHEM_CACTVS_COMPLEXITY>
295

> <PUBCHEM_CACTVS_HBOND_ACCEPTOR>
3

> <PUBCHEM_CACTVS_HBOND_DONOR>
2

> <PUBCHEM_CACTVS_ROTATABLE_BOND>
14

> <PUBCHEM_CACTVS_SUBSKEYS>
AAADcfB4MAAAAAAAAAAAAAAAAAAAAAAAAAAAAAAAAAAAAAAAAAAAGgAACAAACBSggAICCAAAAgCIACDSCAAAAAAgAAAICAEAAAgIFBIAAQAAUAAEgAAIkAOIyKCAAAAAAAAAAAAAAAAAAAAAAAAAAAAAAA==

> <PUBCHEM_CACTVS_TAUTO_COUNT>
1

> <PUBCHEM_CACTVS_TPSA>
57.5

> <PUBCHEM_COMPONENT_COUNT>
1

> <PUBCHEM_COMPOUND_CANONICALIZED>
1

> <PUBCHEM_COMPOUND_CID>
5282948

> <PUBCHEM_COORDINATE_TYPE>
1
5
255

> <PUBCHEM_EXACT_MASS>
296.23514488

> <PUBCHEM_HEAVY_ATOM_COUNT>
21

> <PUBCHEM_ISOTOPIC_ATOM_COUNT>
0

> <PUBCHEM_IUPAC_CAS_NAME>
(9E,11E)-13-hydroxyoctadeca-9,11-dienoic acid

> <PUBCHEM_IUPAC_INCHI>
InChI=1S/C18H32O3/c1-2-3-11-14-17(19)15-12-9-7-5-4-6-8-10-13-16-18(20)21/h7,9,12,15,17,19H,2-6,8,10-11,13-14,16H2,1H3,(H,20,21)/b9-7+,15-12+

> <PUBCHEM_IUPAC_INCHIKEY>
HNICUWMFWZBIFP-KDFHGORWSA-N

> <PUBCHEM_IUPAC_NAME>
(9E,11E)-13-hydroxyoctadeca-9,11-dienoic acid

> <PUBCHEM_IUPAC_NAME_MARKUP>
(9<I>E</I>,11<I>E</I>)-13-hydroxyoctadeca-9,11-dienoic acid

> <PUBCHEM_IUPAC_OPENEYE_NAME>
(9E,11E)-13-hydroxyoctadeca-9,11-dienoic acid

> <PUBCHEM_IUPAC_SYSTEMATIC_NAME>
(9E,11E)-13-oxidanyloctadeca-9,11-dienoic acid

> <PUBCHEM_IUPAC_TRADITIONAL_NAME>
(9E,11E)-13-hydroxyoctadeca-9,11-dienoic acid

> <PUBCHEM_MOLECULAR_FORMULA>
C18H32O3

> <PUBCHEM_MOLECULAR_WEIGHT>
296.4

> <PUBCHEM_MONOISOTOPIC_WEIGHT>
296.23514488

> <PUBCHEM_OPENEYE_CAN_SMILES>
CCCCCC(C=CC=CCCCCCCCC(=O)O)O

> <PUBCHEM_OPENEYE_ISO_SMILES>
CCCCCC(/C=C/C=C/CCCCCCCC(=O)O)O

> <PUBCHEM_TOTAL_CHARGE>
0

> <PUBCHEM_XLOGP3_AA>
5.3

> <RelativeEnergy>
8.71308

> <StereoisomerIndex>
2

> <TautomerIndex>
1

> <POSE_NUMBER>
9

> <LibDockScore>
115.6933

> <HotSpots>
7.01,11.07,-2.85,A,47,9
8.41,8.07,-4.86,A,38,17
6.21,10.67,0.94,A,74,18

> <-In-Situ Starting Energy>
-1159.40251

> <-In-Situ Final Energy>
-2.34785235

> <In-Situ Gradient>
0.0009727856962

> <Favorable Total>
10

> <Unfavorable Total>
2

> <Charge Total>
0

> <Hydrophobic Total>
6

> <HydrogenBond Total>
4

> <Other Total>
0

> <Favorable A:LYS6>
0

> <Favorable A:ARG55>
0

> <Favorable A:LEU58>
0

> <Favorable A:LEU61>
0

> <Favorable A:ILE62>
0

> <Favorable A:GLY64>
0

> <Favorable A:SER65>
0

> <Favorable A:TRP66>
0

> <Favorable A:SER69>
0

> <Favorable A:VAL70>
0

> <Favorable A:PRO73>
0

> <Favorable A:ALA74>
0

> <Favorable A:PHE76>
0

> <Favorable A:ALA77>
0

> <Favorable A:THR78>
0

> <Favorable A:GLU79>
0

> <Favorable A:PHE82>
0

> <Favorable A:ARG83>
0

> <Favorable A:LEU85>
0

> <Favorable A:THR86>
2

> <Favorable A:TRP89>
0

> <Favorable A:THR90>
0

> <Favorable A:ASN93>
0

> <Favorable A:HIS94>
1

> <Favorable A:SER96>
0

> <Favorable A:VAL97>
1

> <Favorable A:TRP98>
2

> <Favorable A:PHE140>
0

> <Favorable A:LEU141>
0

> <Favorable A:ASN144>
1

> <Favorable A:ILE148>
0

> <Favorable A:ILE150>
0

> <Favorable A:HIS151>
0

> <Favorable A:ILE152>
0

> <Favorable A:ALA154>
0

> <Favorable A:SER155>
0

> <Favorable A:ILE156>
0

> <Favorable A:GLY158>
0

> <Favorable A:TYR159>
0

> <Favorable A:ARG160>
0

> <Favorable A:ARG161>
0

> <Favorable A:ASN162>
0

> <Favorable A:LYS163>
0

> <Favorable A:SER167>
0

> <Favorable A:ASP168>
0

> <Favorable A:SER169>
0

> <Favorable A:ASN171>
0

> <Favorable A:PHE172>
0

> <Favorable A:THR173>
0

> <Favorable A:ARG174>
0

> <Favorable A:PHE175>
0

> <Favorable A:SER176>
0

> <Favorable A:SER177>
0

> <Favorable A:LEU178>
0

> <Favorable A:ILE179>
0

> <Favorable A:VAL180>
0

> <Favorable A:LEU181>
0

> <Favorable A:SER183>
1

> <Favorable A:THR184>
0

> <Favorable A:PHE186>
0

> <Favorable A:ILE187>
1

> <Favorable A:PHE188>
0

> <Favorable A:ILE189>
0

> <Favorable A:PRO190>
1

> <Favorable A:PHE191>
0

> <Favorable A:TYR240>
0

> <Favorable A:PHE243>
0

> <Favorable A:SER244>
0

> <Favorable A:PHE247>
0

> <Favorable A:PHE248>
0

> <Favorable A:VAL251>
0

> <Favorable A:TRP252>
0

> <Favorable A:SER254>
0

> <Favorable A:GLU255>
0

> <Favorable A:ARG256>
0

> <Favorable A:LEU257>
0

> <Favorable A:GLU258>
0

> <Favorable A:GLU259>
0

> <Favorable A:LEU261>
0

> <Favorable A:ILE262>
0

> <Favorable A:ILE263>
0

> <Favorable A:SER265>
0

> <Favorable A:GLN266>
0

> <Favorable A:MET268>
0

> <Favorable A:GLY269>
0

> <Favorable A:TYR272>
0

> <Favorable A:PRO273>
0

> <Unfavorable A:ARG55>
0

> <Unfavorable A:PRO73>
0

> <Unfavorable A:PHE76>
0

> <Unfavorable A:GLU79>
0

> <Unfavorable A:ARG83>
0

> <Unfavorable A:THR86>
0

> <Unfavorable A:TRP89>
0

> <Unfavorable A:THR90>
1

> <Unfavorable A:ASN93>
0

> <Unfavorable A:TRP98>
0

> <Unfavorable A:ASN144>
0

> <Unfavorable A:SER155>
0

> <Unfavorable A:GLY158>
0

> <Unfavorable A:TYR159>
0

> <Unfavorable A:ASN162>
0

> <Unfavorable A:ASP168>
0

> <Unfavorable A:ASN171>
0

> <Unfavorable A:THR173>
0

> <Unfavorable A:ARG174>
0

> <Unfavorable A:SER183>
1

> <Unfavorable A:THR184>
0

> <Unfavorable A:PHE186>
0

> <Unfavorable A:SER244>
0

> <Unfavorable A:SER254>
0

> <Unfavorable A:GLU255>
0

> <Unfavorable A:SER265>
0

> <Unfavorable A:GLN266>
0

> <Unfavorable A:GLY269>
0

> <Charge A:ARG55>
0

> <Charge A:PHE76>
0

> <Charge A:GLU79>
0

> <Charge A:PHE82>
0

> <Charge A:ARG83>
0

> <Charge A:TRP89>
0

> <Charge A:HIS94>
0

> <Charge A:TRP98>
0

> <Charge A:TYR159>
0

> <Charge A:ARG161>
0

> <Charge A:LYS163>
0

> <Charge A:ASP168>
0

> <Charge A:PHE172>
0

> <Charge A:ARG174>
0

> <Charge A:PHE175>
0

> <Charge A:PHE188>
0

> <Charge A:PHE247>
0

> <Charge A:PHE248>
0

> <Hydrophobic A:LEU58>
0

> <Hydrophobic A:LEU61>
0

> <Hydrophobic A:ILE62>
0

> <Hydrophobic A:TRP66>
0

> <Hydrophobic A:VAL70>
0

> <Hydrophobic A:PRO73>
0

> <Hydrophobic A:ALA74>
0

> <Hydrophobic A:PHE76>
0

> <Hydrophobic A:ALA77>
0

> <Hydrophobic A:THR78>
0

> <Hydrophobic A:PHE82>
0

> <Hydrophobic A:ARG83>
0

> <Hydrophobic A:LEU85>
0

> <Hydrophobic A:TRP89>
0

> <Hydrophobic A:THR90>
0

> <Hydrophobic A:ASN93>
0

> <Hydrophobic A:HIS94>
1

> <Hydrophobic A:VAL97>
1

> <Hydrophobic A:TRP98>
2

> <Hydrophobic A:PHE140>
0

> <Hydrophobic A:LEU141>
0

> <Hydrophobic A:ILE148>
0

> <Hydrophobic A:ILE150>
0

> <Hydrophobic A:HIS151>
0

> <Hydrophobic A:ILE152>
0

> <Hydrophobic A:ALA154>
0

> <Hydrophobic A:SER155>
0

> <Hydrophobic A:ILE156>
0

> <Hydrophobic A:GLY158>
0

> <Hydrophobic A:TYR159>
0

> <Hydrophobic A:ARG160>
0

> <Hydrophobic A:ARG161>
0

> <Hydrophobic A:ASP168>
0

> <Hydrophobic A:ASN171>
0

> <Hydrophobic A:PHE172>
0

> <Hydrophobic A:ARG174>
0

> <Hydrophobic A:PHE175>
0

> <Hydrophobic A:LEU178>
0

> <Hydrophobic A:ILE179>
0

> <Hydrophobic A:VAL180>
0

> <Hydrophobic A:LEU181>
0

> <Hydrophobic A:PHE186>
0

> <Hydrophobic A:ILE187>
1

> <Hydrophobic A:PHE188>
0

> <Hydrophobic A:ILE189>
0

> <Hydrophobic A:PRO190>
1

> <Hydrophobic A:PHE191>
0

> <Hydrophobic A:TYR240>
0

> <Hydrophobic A:PHE243>
0

> <Hydrophobic A:PHE247>
0

> <Hydrophobic A:PHE248>
0

> <Hydrophobic A:VAL251>
0

> <Hydrophobic A:TRP252>
0

> <Hydrophobic A:SER254>
0

> <Hydrophobic A:LEU261>
0

> <Hydrophobic A:ILE262>
0

> <Hydrophobic A:ILE263>
0

> <Hydrophobic A:TYR272>
0

> <Hydrophobic A:PRO273>
0

> <HydrogenBond A:LYS6>
0

> <HydrogenBond A:ARG55>
0

> <HydrogenBond A:GLY64>
0

> <HydrogenBond A:SER65>
0

> <HydrogenBond A:TRP66>
0

> <HydrogenBond A:SER69>
0

> <HydrogenBond A:PRO73>
0

> <HydrogenBond A:ALA74>
0

> <HydrogenBond A:PHE76>
0

> <HydrogenBond A:ALA77>
0

> <HydrogenBond A:THR78>
0

> <HydrogenBond A:GLU79>
0

> <HydrogenBond A:PHE82>
0

> <HydrogenBond A:ARG83>
0

> <HydrogenBond A:LEU85>
0

> <HydrogenBond A:THR86>
2

> <HydrogenBond A:TRP89>
0

> <HydrogenBond A:THR90>
0

> <HydrogenBond A:ASN93>
0

> <HydrogenBond A:HIS94>
0

> <HydrogenBond A:SER96>
0

> <HydrogenBond A:TRP98>
0

> <HydrogenBond A:ASN144>
1

> <HydrogenBond A:HIS151>
0

> <HydrogenBond A:ILE152>
0

> <HydrogenBond A:ALA154>
0

> <HydrogenBond A:SER155>
0

> <HydrogenBond A:ILE156>
0

> <HydrogenBond A:GLY158>
0

> <HydrogenBond A:TYR159>
0

> <HydrogenBond A:ASN162>
0

> <HydrogenBond A:LYS163>
0

> <HydrogenBond A:SER167>
0

> <HydrogenBond A:ASP168>
0

> <HydrogenBond A:SER169>
0

> <HydrogenBond A:ASN171>
0

> <HydrogenBond A:PHE172>
0

> <HydrogenBond A:THR173>
0

> <HydrogenBond A:ARG174>
0

> <HydrogenBond A:PHE175>
0

> <HydrogenBond A:SER176>
0

> <HydrogenBond A:SER177>
0

> <HydrogenBond A:ILE179>
0

> <HydrogenBond A:VAL180>
0

> <HydrogenBond A:SER183>
1

> <HydrogenBond A:THR184>
0

> <HydrogenBond A:PHE186>
0

> <HydrogenBond A:ILE187>
0

> <HydrogenBond A:PRO190>
0

> <HydrogenBond A:TYR240>
0

> <HydrogenBond A:PHE243>
0

> <HydrogenBond A:SER244>
0

> <HydrogenBond A:PHE247>
0

> <HydrogenBond A:VAL251>
0

> <HydrogenBond A:SER254>
0

> <HydrogenBond A:GLU255>
0

> <HydrogenBond A:ARG256>
0

> <HydrogenBond A:LEU257>
0

> <HydrogenBond A:GLU258>
0

> <HydrogenBond A:GLU259>
0

> <HydrogenBond A:ILE262>
0

> <HydrogenBond A:SER265>
0

> <HydrogenBond A:GLN266>
0

> <HydrogenBond A:MET268>
0

> <HydrogenBond A:GLY269>
0

> <HydrogenBond A:PRO273>
0

> <Other A:SER69>
0

> <Other A:TRP89>
0

> <Other A:TYR159>
0

> <Other A:PHE172>
0

> <Other A:SER176>
0

> <Other A:SER265>
0

$$$$
5481663
  SciTegic09122300493D

 76 80  0  0  0  0            999 V2000
   13.6682    2.7424   -8.3923 O   0  0  0  1  0  0
   11.8005    4.2751  -10.8756 O   0  0  0  1  0  0
   12.1309    2.5399  -12.3472 O   0  0  0  1  0  0
   11.7870    5.8428   -7.7718 O   0  0  0  1  0  0
   12.7225    5.2919   -5.3496 O   0  0  0  1  0  0
   14.3475    1.0408   -6.9272 O   0  0  0  1  0  0
   13.4340    2.7448   -4.7400 O   0  0  0  1  0  0
    9.2920    1.8829  -12.1703 O   0  0  0  1  0  0
    8.4254    3.9181  -13.4116 O   0  0  0  1  0  0
   10.7896    4.3726  -15.1990 O   0  0  0  1  0  0
   15.8838   -0.0599  -10.0649 O   0  0  0  1  0  0
   16.8906    1.6109   -6.5976 O   0  0  0  1  0  0
   19.4686    1.6458   -7.2864 O   0  0  0  1  0  0
   20.3954   -0.1954  -11.6105 O   0  0  0  1  0  0
   10.2064   -0.9766   -8.1448 O   0  0  0  1  0  0
    9.5453   -0.4213  -10.7619 O   0  0  0  1  0  0
   12.7350    3.7504   -8.7342 C   0  0  1  1  0  0
   12.8284    4.8848   -7.7074 C   0  0  2  1  0  0
   12.6245    4.2808   -6.3246 C   0  0  1  1  0  0
   13.6557    3.1930   -6.0606 C   0  0  2  1  0  0
    9.8695    3.1151  -11.7478 C   0  0  1  1  0  0
   11.3247    3.0101  -11.2893 C   0  0  2  1  0  0
    9.7686    4.0044  -12.9805 C   0  0  1  1  0  0
   10.7795    3.5446  -14.0515 C   0  0  2  1  0  0
   13.4564    2.1168   -7.1363 C   0  0  1  1  0  0
   13.0223    4.2062  -10.1709 C   0  0  0  1  0  0
   12.1989    3.3807  -13.4767 C   0  0  2  1  0  0
   13.1436    2.7130  -14.4775 C   0  0  0  1  0  0
   15.2163    0.7383   -7.9325 C   0  0  0  1  0  0
   14.9154    0.1908   -9.1400 C   0  0  0  1  0  0
   16.6253    1.0743   -7.6313 C   0  0  0  1  0  0
   17.6422    0.7751   -8.6393 C   0  0  0  1  0  0
   13.5420   -0.1495   -9.5658 C   0  0  0  1  0  0
   17.2237    0.2192   -9.8413 C   0  0  0  1  0  0
   18.9964    1.0510   -8.4388 C   0  0  0  1  0  0
   18.1497   -0.0702  -10.8325 C   0  0  0  1  0  0
   12.5707   -0.5442   -8.6544 C   0  0  0  1  0  0
   13.1967   -0.0548  -10.9099 C   0  0  0  1  0  0
   19.9211    0.7335   -9.4250 C   0  0  0  1  0  0
   19.5003    0.1591  -10.6200 C   0  0  0  1  0  0
   11.2321   -0.6633   -9.0373 C   0  0  0  1  0  0
   11.8775   -0.2265  -11.3141 C   0  0  0  1  0  0
   10.8817   -0.4610  -10.3747 C   0  0  0  1  0  0
   10.5753   -1.1000   -6.7835 C   0  0  0  1  0  0
   11.7245    6.1876   -8.6575 H   0  0
   12.2041    6.0164   -5.6970 H   0  0
   13.4962    3.5197   -4.1794 H   0  0
    9.3238    1.2394  -11.4540 H   0  0
    8.2008    2.9885  -13.4265 H   0  0
   11.0943    5.2451  -14.9705 H   0  0
   18.9556    1.3448   -6.5280 H   0  0
   21.2211   -0.4804  -11.2395 H   0  0
    9.3086   -1.0214  -11.4747 H   0  0
   11.7323    3.3264   -8.6704 H   0  0
   13.8030    5.3828   -7.7592 H   0  0
   11.6293    3.8231   -6.2585 H   0  0
   14.6781    3.5708   -6.1519 H   0  0
    9.2709    3.5594  -10.9569 H   0  0
   11.3810    2.3067  -10.4618 H   0  0
    9.9595    5.0380  -12.6922 H   0  0
   10.4673    2.5530  -14.3766 H   0  0
   12.4375    1.7308   -7.0857 H   0  0
   13.5190    5.1764  -10.1955 H   0  0
   13.7037    3.5097  -10.6635 H   0  0
   12.6191    4.3440  -13.1847 H   0  0
   12.8017    1.7078  -14.7225 H   0  0
   14.1489    2.6280  -14.0658 H   0  0
   13.2023    3.2804  -15.4056 H   0  0
   17.8200   -0.4956  -11.7680 H   0  0
   12.8726   -0.7245   -7.6352 H   0  0
   13.9406    0.2119  -11.6475 H   0  0
   20.9608    0.9549   -9.2288 H   0  0
   11.6284   -0.0810  -12.3560 H   0  0
   10.9723   -0.1602   -6.3977 H   0  0
   11.3107   -1.8917   -6.6479 H   0  0
    9.7007   -1.3619   -6.1884 H   0  0
  1 17  1  0
  1 25  1  0
  2 22  1  0
  2 26  1  0
  3 22  1  0
  3 27  1  0
  4 18  1  0
  5 19  1  0
  6 25  1  0
  6 29  1  0
  7 20  1  0
  8 21  1  0
  9 23  1  0
 10 24  1  0
 11 30  1  0
 11 34  1  0
 12 31  2  0
 13 35  1  0
 14 40  1  0
 15 41  1  0
 15 44  1  0
 16 43  1  0
 17 18  1  0
 17 26  1  0
 18 19  1  0
 19 20  1  0
 20 25  1  0
 21 22  1  0
 21 23  1  0
 23 24  1  0
 24 27  1  0
 27 28  1  0
 29 30  2  0
 29 31  1  0
 30 33  1  0
 31 32  1  0
 32 34  2  0
 32 35  1  0
 33 37  2  0
 33 38  1  0
 34 36  1  0
 35 39  2  0
 36 40  2  0
 37 41  1  0
 38 42  2  0
 39 40  1  0
 41 43  2  0
 42 43  1  0
  4 45  1  0
  5 46  1  0
  7 47  1  0
  8 48  1  0
  9 49  1  0
 10 50  1  0
 13 51  1  0
 14 52  1  0
 16 53  1  0
 17 54  1  0
 18 55  1  0
 19 56  1  0
 20 57  1  0
 21 58  1  0
 22 59  1  0
 23 60  1  0
 24 61  1  0
 25 62  1  0
 26 63  1  0
 26 64  1  0
 27 65  1  0
 28 66  1  0
 28 67  1  0
 28 68  1  0
 36 69  1  0
 37 70  1  0
 38 71  1  0
 39 72  1  0
 42 73  1  0
 44 74  1  0
 44 75  1  0
 44 76  1  0
M  END
> <Name>
5481663

> <Binding Energy>
-113.6151

> <Ligand Energy>
70.0006

> <Protein Energy>
-7801.1566

> <Complex Energy>
-7844.7712

> <Complex Entropy>
-31.4936

> <Protein Entropy>
-31.4717

> <Ligand Entropy>
-21.2017

> <Entropic Energy>
21.1798

> <AbsoluteEnergy>
80.8847

> <ConfNumber>
44

> <Ionization pH>
7.04_PPP

> <IonizationIndex>
1

> <MOL_NUMBER>
844

> <NumberOfIonizations>
2

> <NumberOfStereoisomers>
1

> <NumberOfTautomers>
4

> <PUBCHEM_ATOM_DEF_STEREO_COUNT>
10

> <PUBCHEM_ATOM_UDEF_STEREO_COUNT>
0

> <PUBCHEM_BONDANNOTATIONS>
24  10  5
11  30  8
11  34  8
17  26  5
22  2  5
27  28  6
29  30  8
29  31  8
31  32  8
32  34  8
32  35  8
33  37  8
33  38  8
34  36  8
35  39  8
36  40  8
37  41  8
38  42  8
39  40  8
18  4  6
41  43  8
42  43  8
19  5  5
25  6  5
20  7  6
21  8  6
23  9  6

> <PUBCHEM_BOND_DEF_STEREO_COUNT>
0

> <PUBCHEM_BOND_UDEF_STEREO_COUNT>
0

> <PUBCHEM_CACTVS_COMPLEXITY>
1040

> <PUBCHEM_CACTVS_HBOND_ACCEPTOR>
16

> <PUBCHEM_CACTVS_HBOND_DONOR>
9

> <PUBCHEM_CACTVS_ROTATABLE_BOND>
7

> <PUBCHEM_CACTVS_SUBSKEYS>
AAADcfB4PgAAAAAAAAAAAAAAAAAAAAAAAAA0aIECAAAAAACBQAAAGgAACAAADBSwmAMyDoAABgCIAqBSAAICCAAkIAAIiAFGiMgdNzaGNR6ieWOl4BUPuQfI7LzOIAABCAAIQABAAAIQABCAAAAAAAAAAA==

> <PUBCHEM_CACTVS_TAUTO_COUNT>
69

> <PUBCHEM_CACTVS_TPSA>
255

> <PUBCHEM_COMPONENT_COUNT>
1

> <PUBCHEM_COMPOUND_CANONICALIZED>
1

> <PUBCHEM_COMPOUND_CID>
5481663

> <PUBCHEM_COORDINATE_TYPE>
1
5
255

> <PUBCHEM_EXACT_MASS>
624.16903493

> <PUBCHEM_HEAVY_ATOM_COUNT>
44

> <PUBCHEM_ISOTOPIC_ATOM_COUNT>
0

> <PUBCHEM_IUPAC_CAS_NAME>
5,7-dihydroxy-2-(4-hydroxy-3-methoxyphenyl)-3-[[(2S,3R,4S,5S,6R)-3,4,5-trihydroxy-6-[[(2R,3R,4R,5R,6S)-3,4,5-trihydroxy-6-methyl-2-oxanyl]oxymethyl]-2-oxanyl]oxy]-1-benzopyran-4-one

> <PUBCHEM_IUPAC_INCHI>
InChI=1S/C28H32O16/c1-9-18(32)21(35)23(37)27(41-9)40-8-16-19(33)22(36)24(38)28(43-16)44-26-20(34)17-13(31)6-11(29)7-15(17)42-25(26)10-3-4-12(30)14(5-10)39-2/h3-7,9,16,18-19,21-24,27-33,35-38H,8H2,1-2H
3/t9-,16+,18-,19+,21+,22-,23+,24+,27+,28-/m0/s1

> <PUBCHEM_IUPAC_INCHIKEY>
UIDGLYUNOUKLBM-GEBJFKNCSA-N

> <PUBCHEM_IUPAC_NAME>
5,7-dihydroxy-2-(4-hydroxy-3-methoxyphenyl)-3-[(2S,3R,4S,5S,6R)-3,4,5-trihydroxy-6-[[(2R,3R,4R,5R,6S)-3,4,5-trihydroxy-6-methyloxan-2-yl]oxymethyl]oxan-2-yl]oxychromen-4-one

> <PUBCHEM_IUPAC_NAME_MARKUP>
5,7-dihydroxy-2-(4-hydroxy-3-methoxyphenyl)-3-[(2<I>S</I>,3<I>R</I>,4<I>S</I>,5<I>S</I>,6<I>R</I>)-3,4,5-trihydroxy-6-[[(2<I>R</I>,3<I>R</I>,4<I>R</I>,5<I>R</I>,6<I>S</I>)-3,4,5-trihydroxy-6-methyloxa
n-2-yl]oxymethyl]oxan-2-yl]oxychromen-4-one

> <PUBCHEM_IUPAC_OPENEYE_NAME>
5,7-dihydroxy-2-(4-hydroxy-3-methoxy-phenyl)-3-[(2S,3R,4S,5S,6R)-3,4,5-trihydroxy-6-[[(2R,3R,4R,5R,6S)-3,4,5-trihydroxy-6-methyl-tetrahydropyran-2-yl]oxymethyl]tetrahydropyran-2-yl]oxy-chromen-4-one

> <PUBCHEM_IUPAC_SYSTEMATIC_NAME>
2-(3-methoxy-4-oxidanyl-phenyl)-3-[(2S,3R,4S,5S,6R)-6-[[(2R,3R,4R,5R,6S)-6-methyl-3,4,5-tris(oxidanyl)oxan-2-yl]oxymethyl]-3,4,5-tris(oxidanyl)oxan-2-yl]oxy-5,7-bis(oxidanyl)chromen-4-one

> <PUBCHEM_IUPAC_TRADITIONAL_NAME>
5,7-dihydroxy-2-(4-hydroxy-3-methoxy-phenyl)-3-[(2S,3R,4S,5S,6R)-3,4,5-trihydroxy-6-[[(2R,3R,4R,5R,6S)-3,4,5-trihydroxy-6-methyl-tetrahydropyran-2-yl]oxymethyl]tetrahydropyran-2-yl]oxy-chromone

> <PUBCHEM_MOLECULAR_FORMULA>
C28H32O16

> <PUBCHEM_MOLECULAR_WEIGHT>
624.5

> <PUBCHEM_MONOISOTOPIC_WEIGHT>
624.16903493

> <PUBCHEM_OPENEYE_CAN_SMILES>
CC1C(C(C(C(O1)OCC2C(C(C(C(O2)OC3=C(OC4=CC(=CC(=C4C3=O)O)O)C5=CC(=C(C=C5)O)OC)O)O)O)O)O)O

> <PUBCHEM_OPENEYE_ISO_SMILES>
C[C@H]1[C@@H]([C@H]([C@H]([C@@H](O1)OC[C@@H]2[C@H]([C@@H]([C@H]([C@@H](O2)OC3=C(OC4=CC(=CC(=C4C3=O)O)O)C5=CC(=C(C=C5)O)OC)O)O)O)O)O)O

> <PUBCHEM_TOTAL_CHARGE>
0

> <PUBCHEM_XLOGP3_AA>
-1

> <RelativeEnergy>
13.4319

> <StereoisomerIndex>
1

> <TautomerIndex>
1

> <POSE_NUMBER>
1

> <LibDockScore>
120.8178

> <HotSpots>
11.01,5.47,-15.65,P,18,10
9.01,2.67,-14.05,A,21,21
9.41,-1.33,-5.66,A,37,44

> <-In-Situ Starting Energy>
-4129.97757

> <-In-Situ Final Energy>
16.270736

> <In-Situ Gradient>
0.0008857779708

> <Favorable Total>
11

> <Unfavorable Total>
1

> <Charge Total>
0

> <Hydrophobic Total>
5

> <HydrogenBond Total>
6

> <Other Total>
0

> <Favorable A:LYS6>
0

> <Favorable A:ARG55>
0

> <Favorable A:LEU58>
0

> <Favorable A:LEU61>
0

> <Favorable A:ILE62>
0

> <Favorable A:GLY64>
0

> <Favorable A:SER65>
1

> <Favorable A:TRP66>
0

> <Favorable A:SER69>
0

> <Favorable A:VAL70>
0

> <Favorable A:PRO73>
0

> <Favorable A:ALA74>
0

> <Favorable A:PHE76>
1

> <Favorable A:ALA77>
0

> <Favorable A:THR78>
0

> <Favorable A:GLU79>
0

> <Favorable A:PHE82>
1

> <Favorable A:ARG83>
0

> <Favorable A:LEU85>
0

> <Favorable A:THR86>
0

> <Favorable A:TRP89>
2

> <Favorable A:THR90>
0

> <Favorable A:ASN93>
0

> <Favorable A:HIS94>
0

> <Favorable A:SER96>
0

> <Favorable A:VAL97>
0

> <Favorable A:TRP98>
0

> <Favorable A:PHE140>
0

> <Favorable A:LEU141>
0

> <Favorable A:ASN144>
0

> <Favorable A:ILE148>
0

> <Favorable A:ILE150>
0

> <Favorable A:HIS151>
0

> <Favorable A:ILE152>
0

> <Favorable A:ALA154>
0

> <Favorable A:SER155>
0

> <Favorable A:ILE156>
0

> <Favorable A:GLY158>
0

> <Favorable A:TYR159>
0

> <Favorable A:ARG160>
0

> <Favorable A:ARG161>
0

> <Favorable A:ASN162>
0

> <Favorable A:LYS163>
0

> <Favorable A:SER167>
0

> <Favorable A:ASP168>
0

> <Favorable A:SER169>
0

> <Favorable A:ASN171>
0

> <Favorable A:PHE172>
0

> <Favorable A:THR173>
0

> <Favorable A:ARG174>
0

> <Favorable A:PHE175>
0

> <Favorable A:SER176>
0

> <Favorable A:SER177>
0

> <Favorable A:LEU178>
0

> <Favorable A:ILE179>
0

> <Favorable A:VAL180>
0

> <Favorable A:LEU181>
0

> <Favorable A:SER183>
0

> <Favorable A:THR184>
0

> <Favorable A:PHE186>
0

> <Favorable A:ILE187>
0

> <Favorable A:PHE188>
0

> <Favorable A:ILE189>
0

> <Favorable A:PRO190>
0

> <Favorable A:PHE191>
0

> <Favorable A:TYR240>
0

> <Favorable A:PHE243>
0

> <Favorable A:SER244>
0

> <Favorable A:PHE247>
0

> <Favorable A:PHE248>
0

> <Favorable A:VAL251>
0

> <Favorable A:TRP252>
0

> <Favorable A:SER254>
1

> <Favorable A:GLU255>
0

> <Favorable A:ARG256>
0

> <Favorable A:LEU257>
0

> <Favorable A:GLU258>
0

> <Favorable A:GLU259>
0

> <Favorable A:LEU261>
0

> <Favorable A:ILE262>
2

> <Favorable A:ILE263>
0

> <Favorable A:SER265>
2

> <Favorable A:GLN266>
1

> <Favorable A:MET268>
0

> <Favorable A:GLY269>
0

> <Favorable A:TYR272>
0

> <Favorable A:PRO273>
0

> <Unfavorable A:ARG55>
0

> <Unfavorable A:PRO73>
0

> <Unfavorable A:PHE76>
0

> <Unfavorable A:GLU79>
0

> <Unfavorable A:ARG83>
0

> <Unfavorable A:THR86>
0

> <Unfavorable A:TRP89>
0

> <Unfavorable A:THR90>
0

> <Unfavorable A:ASN93>
0

> <Unfavorable A:TRP98>
0

> <Unfavorable A:ASN144>
0

> <Unfavorable A:SER155>
0

> <Unfavorable A:GLY158>
0

> <Unfavorable A:TYR159>
0

> <Unfavorable A:ASN162>
0

> <Unfavorable A:ASP168>
0

> <Unfavorable A:ASN171>
0

> <Unfavorable A:THR173>
0

> <Unfavorable A:ARG174>
0

> <Unfavorable A:SER183>
0

> <Unfavorable A:THR184>
0

> <Unfavorable A:PHE186>
0

> <Unfavorable A:SER244>
0

> <Unfavorable A:SER254>
1

> <Unfavorable A:GLU255>
0

> <Unfavorable A:SER265>
0

> <Unfavorable A:GLN266>
0

> <Unfavorable A:GLY269>
0

> <Charge A:ARG55>
0

> <Charge A:PHE76>
0

> <Charge A:GLU79>
0

> <Charge A:PHE82>
0

> <Charge A:ARG83>
0

> <Charge A:TRP89>
0

> <Charge A:HIS94>
0

> <Charge A:TRP98>
0

> <Charge A:TYR159>
0

> <Charge A:ARG161>
0

> <Charge A:LYS163>
0

> <Charge A:ASP168>
0

> <Charge A:PHE172>
0

> <Charge A:ARG174>
0

> <Charge A:PHE175>
0

> <Charge A:PHE188>
0

> <Charge A:PHE247>
0

> <Charge A:PHE248>
0

> <Hydrophobic A:LEU58>
0

> <Hydrophobic A:LEU61>
0

> <Hydrophobic A:ILE62>
0

> <Hydrophobic A:TRP66>
0

> <Hydrophobic A:VAL70>
0

> <Hydrophobic A:PRO73>
0

> <Hydrophobic A:ALA74>
0

> <Hydrophobic A:PHE76>
1

> <Hydrophobic A:ALA77>
0

> <Hydrophobic A:THR78>
0

> <Hydrophobic A:PHE82>
1

> <Hydrophobic A:ARG83>
0

> <Hydrophobic A:LEU85>
0

> <Hydrophobic A:TRP89>
1

> <Hydrophobic A:THR90>
0

> <Hydrophobic A:ASN93>
0

> <Hydrophobic A:HIS94>
0

> <Hydrophobic A:VAL97>
0

> <Hydrophobic A:TRP98>
0

> <Hydrophobic A:PHE140>
0

> <Hydrophobic A:LEU141>
0

> <Hydrophobic A:ILE148>
0

> <Hydrophobic A:ILE150>
0

> <Hydrophobic A:HIS151>
0

> <Hydrophobic A:ILE152>
0

> <Hydrophobic A:ALA154>
0

> <Hydrophobic A:SER155>
0

> <Hydrophobic A:ILE156>
0

> <Hydrophobic A:GLY158>
0

> <Hydrophobic A:TYR159>
0

> <Hydrophobic A:ARG160>
0

> <Hydrophobic A:ARG161>
0

> <Hydrophobic A:ASP168>
0

> <Hydrophobic A:ASN171>
0

> <Hydrophobic A:PHE172>
0

> <Hydrophobic A:ARG174>
0

> <Hydrophobic A:PHE175>
0

> <Hydrophobic A:LEU178>
0

> <Hydrophobic A:ILE179>
0

> <Hydrophobic A:VAL180>
0

> <Hydrophobic A:LEU181>
0

> <Hydrophobic A:PHE186>
0

> <Hydrophobic A:ILE187>
0

> <Hydrophobic A:PHE188>
0

> <Hydrophobic A:ILE189>
0

> <Hydrophobic A:PRO190>
0

> <Hydrophobic A:PHE191>
0

> <Hydrophobic A:TYR240>
0

> <Hydrophobic A:PHE243>
0

> <Hydrophobic A:PHE247>
0

> <Hydrophobic A:PHE248>
0

> <Hydrophobic A:VAL251>
0

> <Hydrophobic A:TRP252>
0

> <Hydrophobic A:SER254>
0

> <Hydrophobic A:LEU261>
0

> <Hydrophobic A:ILE262>
2

> <Hydrophobic A:ILE263>
0

> <Hydrophobic A:TYR272>
0

> <Hydrophobic A:PRO273>
0

> <HydrogenBond A:LYS6>
0

> <HydrogenBond A:ARG55>
0

> <HydrogenBond A:GLY64>
0

> <HydrogenBond A:SER65>
1

> <HydrogenBond A:TRP66>
0

> <HydrogenBond A:SER69>
0

> <HydrogenBond A:PRO73>
0

> <HydrogenBond A:ALA74>
0

> <HydrogenBond A:PHE76>
0

> <HydrogenBond A:ALA77>
0

> <HydrogenBond A:THR78>
0

> <HydrogenBond A:GLU79>
0

> <HydrogenBond A:PHE82>
0

> <HydrogenBond A:ARG83>
0

> <HydrogenBond A:LEU85>
0

> <HydrogenBond A:THR86>
0

> <HydrogenBond A:TRP89>
1

> <HydrogenBond A:THR90>
0

> <HydrogenBond A:ASN93>
0

> <HydrogenBond A:HIS94>
0

> <HydrogenBond A:SER96>
0

> <HydrogenBond A:TRP98>
0

> <HydrogenBond A:ASN144>
0

> <HydrogenBond A:HIS151>
0

> <HydrogenBond A:ILE152>
0

> <HydrogenBond A:ALA154>
0

> <HydrogenBond A:SER155>
0

> <HydrogenBond A:ILE156>
0

> <HydrogenBond A:GLY158>
0

> <HydrogenBond A:TYR159>
0

> <HydrogenBond A:ASN162>
0

> <HydrogenBond A:LYS163>
0

> <HydrogenBond A:SER167>
0

> <HydrogenBond A:ASP168>
0

> <HydrogenBond A:SER169>
0

> <HydrogenBond A:ASN171>
0

> <HydrogenBond A:PHE172>
0

> <HydrogenBond A:THR173>
0

> <HydrogenBond A:ARG174>
0

> <HydrogenBond A:PHE175>
0

> <HydrogenBond A:SER176>
0

> <HydrogenBond A:SER177>
0

> <HydrogenBond A:ILE179>
0

> <HydrogenBond A:VAL180>
0

> <HydrogenBond A:SER183>
0

> <HydrogenBond A:THR184>
0

> <HydrogenBond A:PHE186>
0

> <HydrogenBond A:ILE187>
0

> <HydrogenBond A:PRO190>
0

> <HydrogenBond A:TYR240>
0

> <HydrogenBond A:PHE243>
0

> <HydrogenBond A:SER244>
0

> <HydrogenBond A:PHE247>
0

> <HydrogenBond A:VAL251>
0

> <HydrogenBond A:SER254>
1

> <HydrogenBond A:GLU255>
0

> <HydrogenBond A:ARG256>
0

> <HydrogenBond A:LEU257>
0

> <HydrogenBond A:GLU258>
0

> <HydrogenBond A:GLU259>
0

> <HydrogenBond A:ILE262>
0

> <HydrogenBond A:SER265>
2

> <HydrogenBond A:GLN266>
1

> <HydrogenBond A:MET268>
0

> <HydrogenBond A:GLY269>
0

> <HydrogenBond A:PRO273>
0

> <Other A:SER69>
0

> <Other A:TRP89>
0

> <Other A:TYR159>
0

> <Other A:PHE172>
0

> <Other A:SER176>
0

> <Other A:SER265>
0

$$$$
6446027
  SciTegic09122300493D

 50 49  0  0  0  0            999 V2000
    6.2478   12.1378   -0.5098 O   0  5  0  1  0  0
    5.5208   10.1245   -0.2453 O   0  0  0  1  0  0
   11.5571    5.8114  -11.7536 O   0  0  0  1  0  0
    7.9810    7.8157   -4.4530 C   0  0  0  1  0  0
    9.1804    7.6030   -5.3780 C   0  0  0  1  0  0
    8.1956    9.0175   -3.5446 C   0  0  0  1  0  0
   10.0361    6.3355   -5.1209 C   0  0  0  1  0  0
    7.0308    9.2837   -2.5864 C   0  0  0  1  0  0
   11.1091    6.0986   -6.2338 C   0  0  0  1  0  0
    7.4216   10.4239   -1.6471 C   0  0  0  1  0  0
    9.2239    3.8197  -12.6748 C   0  0  0  1  0  0
    8.5742    2.7740  -13.5899 C   0  0  0  1  0  0
   10.7567    3.7575  -12.6482 C   0  0  0  1  0  0
    7.0656    3.0199  -13.7248 C   0  0  0  1  0  0
   11.5679    4.6868   -6.4963 C   0  0  0  1  0  0
    6.3107   10.9279   -0.7286 C   0  0  0  1  0  0
   11.2873    4.6671  -11.5277 C   0  0  0  1  0  0
    6.3239    1.9229  -14.5047 C   0  0  0  1  0  0
   11.6922    4.0956   -7.7042 C   0  0  0  1  0  0
   11.4014    4.0536  -10.1724 C   0  0  0  1  0  0
   11.5729    4.7458   -9.0278 C   0  0  0  1  0  0
    7.0807    7.9977   -5.0379 H   0  0
    7.7690    6.9176   -3.8868 H   0  0
    9.7865    8.5011   -5.3953 H   0  0
    8.7681    7.5741   -6.3670 H   0  0
    8.3410    9.9003   -4.1652 H   0  0
    9.1257    8.8867   -2.9938 H   0  0
   10.5436    6.4015   -4.1610 H   0  0
    9.3674    5.4981   -4.9506 H   0  0
    6.1384    9.5489   -3.1533 H   0  0
    6.7843    8.3918   -2.0104 H   0  0
   12.0141    6.6543   -6.0344 H   0  0
   10.7467    6.5319   -7.1627 H   0  0
    8.2582   10.1204   -1.0246 H   0  0
    7.7521   11.2625   -2.2499 H   0  0
    8.9150    4.8211  -12.9740 H   0  0
    8.8384    3.6683  -11.6673 H   0  0
    8.7526    1.7791  -13.1810 H   0  0
    9.0405    2.7915  -14.5751 H   0  0
   11.1025    2.7369  -12.4823 H   0  0
   11.1717    4.0906  -13.5997 H   0  0
    6.8853    3.9869  -14.1909 H   0  0
    6.6334    3.1065  -12.7309 H   0  0
   11.7129    4.0948   -5.6108 H   0  0
    5.8283    1.2459  -13.8200 H   0  0
    6.9814    1.3999  -15.1999 H   0  0
    5.4908    2.2703  -15.1040 H   0  0
   11.9029    3.0419   -7.7391 H   0  0
   11.3202    2.9842  -10.1184 H   0  0
   11.6195    5.8194   -9.0513 H   0  0
  1 16  1  0
  2 16  2  0
  3 17  2  0
  4  5  1  0
  4  6  1  0
  5  7  1  0
  6  8  1  0
  7  9  1  0
  8 10  1  0
  9 15  1  0
 10 16  1  0
 11 12  1  0
 11 13  1  0
 12 14  1  0
 13 17  1  0
 14 18  1  0
 15 19  2  0
 17 20  1  0
 19 21  1  0
 20 21  2  0
  4 22  1  0
  4 23  1  0
  5 24  1  0
  5 25  1  0
  6 26  1  0
  6 27  1  0
  7 28  1  0
  7 29  1  0
  8 30  1  0
  8 31  1  0
  9 32  1  0
  9 33  1  0
 10 34  1  0
 10 35  1  0
 11 36  1  0
 11 37  1  0
 12 38  1  0
 12 39  1  0
 13 40  1  0
 13 41  1  0
 14 42  1  0
 14 43  1  0
 15 44  1  0
 18 45  1  0
 18 46  1  0
 18 47  1  0
 19 48  1  0
 20 49  1  0
 21 50  1  0
M  CHG  1   1  -1
M  END
> <Name>
6446027

> <Binding Energy>
-90.94

> <Ligand Energy>
10.8416

> <Protein Energy>
-7801.1566

> <Complex Energy>
-7881.255

> <Complex Entropy>
-31.4811

> <Protein Entropy>
-31.4717

> <Ligand Entropy>
-20.0979

> <Entropic Energy>
20.0885

> <AbsoluteEnergy>
17.8098

> <ConfNumber>
4

> <Ionization pH>
7.5

> <IonizationIndex>
1

> <MOL_NUMBER>
853

> <NumberOfIonizations>
1

> <NumberOfStereoisomers>
1

> <NumberOfTautomers>
1

> <PUBCHEM_ATOM_DEF_STEREO_COUNT>
0

> <PUBCHEM_ATOM_UDEF_STEREO_COUNT>
0

> <PUBCHEM_BOND_DEF_STEREO_COUNT>
2

> <PUBCHEM_BOND_UDEF_STEREO_COUNT>
0

> <PUBCHEM_CACTVS_COMPLEXITY>
329

> <PUBCHEM_CACTVS_HBOND_ACCEPTOR>
3

> <PUBCHEM_CACTVS_HBOND_DONOR>
1

> <PUBCHEM_CACTVS_ROTATABLE_BOND>
14

> <PUBCHEM_CACTVS_SUBSKEYS>
AAADceB4MAAAAAAAAAAAAAAAAAAAAAAAAAAAAAAAAAAAAAAAAAAAGgAACAAACASAgAACCAAAAgCIAKDSCAAAAAAgAAAICAEAAEgIABIAAQAAQAAEgAAIgYOIyKCAAAAAAAAAAAAAAAAAAAAAAAAAAAAAAA==

> <PUBCHEM_CACTVS_TAUTO_COUNT>
7

> <PUBCHEM_CACTVS_TPSA>
54.4

> <PUBCHEM_COMPONENT_COUNT>
1

> <PUBCHEM_COMPOUND_CANONICALIZED>
1

> <PUBCHEM_COMPOUND_CID>
6446027

> <PUBCHEM_COORDINATE_TYPE>
1
5
255

> <PUBCHEM_EXACT_MASS>
294.21949481

> <PUBCHEM_HEAVY_ATOM_COUNT>
21

> <PUBCHEM_ISOTOPIC_ATOM_COUNT>
0

> <PUBCHEM_IUPAC_CAS_NAME>
(9Z,11E)-13-oxooctadeca-9,11-dienoic acid

> <PUBCHEM_IUPAC_INCHI>
InChI=1S/C18H30O3/c1-2-3-11-14-17(19)15-12-9-7-5-4-6-8-10-13-16-18(20)21/h7,9,12,15H,2-6,8,10-11,13-14,16H2,1H3,(H,20,21)/b9-7-,15-12+

> <PUBCHEM_IUPAC_INCHIKEY>
JHXAZBBVQSRKJR-BSZOFBHHSA-N

> <PUBCHEM_IUPAC_NAME>
(9Z,11E)-13-oxooctadeca-9,11-dienoic acid

> <PUBCHEM_IUPAC_NAME_MARKUP>
(9<I>Z</I>,11<I>E</I>)-13-oxooctadeca-9,11-dienoic acid

> <PUBCHEM_IUPAC_OPENEYE_NAME>
(9Z,11E)-13-oxooctadeca-9,11-dienoic acid

> <PUBCHEM_IUPAC_SYSTEMATIC_NAME>
(9Z,11E)-13-oxidanylideneoctadeca-9,11-dienoic acid

> <PUBCHEM_IUPAC_TRADITIONAL_NAME>
(9Z,11E)-13-ketooctadeca-9,11-dienoic acid

> <PUBCHEM_MOLECULAR_FORMULA>
C18H30O3

> <PUBCHEM_MOLECULAR_WEIGHT>
294.4

> <PUBCHEM_MONOISOTOPIC_WEIGHT>
294.21949481

> <PUBCHEM_OPENEYE_CAN_SMILES>
CCCCCC(=O)C=CC=CCCCCCCCC(=O)O

> <PUBCHEM_OPENEYE_ISO_SMILES>
CCCCCC(=O)/C=C/C=C\CCCCCCCC(=O)O

> <PUBCHEM_TOTAL_CHARGE>
0

> <PUBCHEM_XLOGP3_AA>
5.2

> <RelativeEnergy>
0.28205

> <StereoisomerIndex>
1

> <TautomerIndex>
1

> <POSE_NUMBER>
6

> <LibDockScore>
122.7418

> <HotSpots>
8.01,10.07,-2.25,A,50,8
9.01,2.67,-14.05,A,21,12
6.61,11.87,-1.46,A,53,16

> <-In-Situ Starting Energy>
-1096.7923

> <-In-Situ Final Energy>
41.2158922

> <In-Situ Gradient>
0.0008247142865

> <Favorable Total>
7

> <Unfavorable Total>
0

> <Charge Total>
0

> <Hydrophobic Total>
2

> <HydrogenBond Total>
5

> <Other Total>
0

> <Favorable A:LYS6>
0

> <Favorable A:ARG55>
0

> <Favorable A:LEU58>
0

> <Favorable A:LEU61>
1

> <Favorable A:ILE62>
0

> <Favorable A:GLY64>
0

> <Favorable A:SER65>
0

> <Favorable A:TRP66>
0

> <Favorable A:SER69>
0

> <Favorable A:VAL70>
0

> <Favorable A:PRO73>
0

> <Favorable A:ALA74>
0

> <Favorable A:PHE76>
0

> <Favorable A:ALA77>
0

> <Favorable A:THR78>
0

> <Favorable A:GLU79>
0

> <Favorable A:PHE82>
0

> <Favorable A:ARG83>
0

> <Favorable A:LEU85>
1

> <Favorable A:THR86>
2

> <Favorable A:TRP89>
0

> <Favorable A:THR90>
0

> <Favorable A:ASN93>
0

> <Favorable A:HIS94>
2

> <Favorable A:SER96>
0

> <Favorable A:VAL97>
0

> <Favorable A:TRP98>
1

> <Favorable A:PHE140>
0

> <Favorable A:LEU141>
0

> <Favorable A:ASN144>
0

> <Favorable A:ILE148>
0

> <Favorable A:ILE150>
0

> <Favorable A:HIS151>
0

> <Favorable A:ILE152>
0

> <Favorable A:ALA154>
0

> <Favorable A:SER155>
0

> <Favorable A:ILE156>
0

> <Favorable A:GLY158>
0

> <Favorable A:TYR159>
0

> <Favorable A:ARG160>
0

> <Favorable A:ARG161>
0

> <Favorable A:ASN162>
0

> <Favorable A:LYS163>
0

> <Favorable A:SER167>
0

> <Favorable A:ASP168>
0

> <Favorable A:SER169>
0

> <Favorable A:ASN171>
0

> <Favorable A:PHE172>
0

> <Favorable A:THR173>
0

> <Favorable A:ARG174>
0

> <Favorable A:PHE175>
0

> <Favorable A:SER176>
0

> <Favorable A:SER177>
0

> <Favorable A:LEU178>
0

> <Favorable A:ILE179>
0

> <Favorable A:VAL180>
0

> <Favorable A:LEU181>
0

> <Favorable A:SER183>
0

> <Favorable A:THR184>
0

> <Favorable A:PHE186>
0

> <Favorable A:ILE187>
0

> <Favorable A:PHE188>
0

> <Favorable A:ILE189>
0

> <Favorable A:PRO190>
0

> <Favorable A:PHE191>
0

> <Favorable A:TYR240>
0

> <Favorable A:PHE243>
0

> <Favorable A:SER244>
0

> <Favorable A:PHE247>
0

> <Favorable A:PHE248>
0

> <Favorable A:VAL251>
0

> <Favorable A:TRP252>
0

> <Favorable A:SER254>
0

> <Favorable A:GLU255>
0

> <Favorable A:ARG256>
0

> <Favorable A:LEU257>
0

> <Favorable A:GLU258>
0

> <Favorable A:GLU259>
0

> <Favorable A:LEU261>
0

> <Favorable A:ILE262>
0

> <Favorable A:ILE263>
0

> <Favorable A:SER265>
0

> <Favorable A:GLN266>
0

> <Favorable A:MET268>
0

> <Favorable A:GLY269>
0

> <Favorable A:TYR272>
0

> <Favorable A:PRO273>
0

> <Unfavorable A:ARG55>
0

> <Unfavorable A:PRO73>
0

> <Unfavorable A:PHE76>
0

> <Unfavorable A:GLU79>
0

> <Unfavorable A:ARG83>
0

> <Unfavorable A:THR86>
0

> <Unfavorable A:TRP89>
0

> <Unfavorable A:THR90>
0

> <Unfavorable A:ASN93>
0

> <Unfavorable A:TRP98>
0

> <Unfavorable A:ASN144>
0

> <Unfavorable A:SER155>
0

> <Unfavorable A:GLY158>
0

> <Unfavorable A:TYR159>
0

> <Unfavorable A:ASN162>
0

> <Unfavorable A:ASP168>
0

> <Unfavorable A:ASN171>
0

> <Unfavorable A:THR173>
0

> <Unfavorable A:ARG174>
0

> <Unfavorable A:SER183>
0

> <Unfavorable A:THR184>
0

> <Unfavorable A:PHE186>
0

> <Unfavorable A:SER244>
0

> <Unfavorable A:SER254>
0

> <Unfavorable A:GLU255>
0

> <Unfavorable A:SER265>
0

> <Unfavorable A:GLN266>
0

> <Unfavorable A:GLY269>
0

> <Charge A:ARG55>
0

> <Charge A:PHE76>
0

> <Charge A:GLU79>
0

> <Charge A:PHE82>
0

> <Charge A:ARG83>
0

> <Charge A:TRP89>
0

> <Charge A:HIS94>
0

> <Charge A:TRP98>
0

> <Charge A:TYR159>
0

> <Charge A:ARG161>
0

> <Charge A:LYS163>
0

> <Charge A:ASP168>
0

> <Charge A:PHE172>
0

> <Charge A:ARG174>
0

> <Charge A:PHE175>
0

> <Charge A:PHE188>
0

> <Charge A:PHE247>
0

> <Charge A:PHE248>
0

> <Hydrophobic A:LEU58>
0

> <Hydrophobic A:LEU61>
1

> <Hydrophobic A:ILE62>
0

> <Hydrophobic A:TRP66>
0

> <Hydrophobic A:VAL70>
0

> <Hydrophobic A:PRO73>
0

> <Hydrophobic A:ALA74>
0

> <Hydrophobic A:PHE76>
0

> <Hydrophobic A:ALA77>
0

> <Hydrophobic A:THR78>
0

> <Hydrophobic A:PHE82>
0

> <Hydrophobic A:ARG83>
0

> <Hydrophobic A:LEU85>
1

> <Hydrophobic A:TRP89>
0

> <Hydrophobic A:THR90>
0

> <Hydrophobic A:ASN93>
0

> <Hydrophobic A:HIS94>
0

> <Hydrophobic A:VAL97>
0

> <Hydrophobic A:TRP98>
0

> <Hydrophobic A:PHE140>
0

> <Hydrophobic A:LEU141>
0

> <Hydrophobic A:ILE148>
0

> <Hydrophobic A:ILE150>
0

> <Hydrophobic A:HIS151>
0

> <Hydrophobic A:ILE152>
0

> <Hydrophobic A:ALA154>
0

> <Hydrophobic A:SER155>
0

> <Hydrophobic A:ILE156>
0

> <Hydrophobic A:GLY158>
0

> <Hydrophobic A:TYR159>
0

> <Hydrophobic A:ARG160>
0

> <Hydrophobic A:ARG161>
0

> <Hydrophobic A:ASP168>
0

> <Hydrophobic A:ASN171>
0

> <Hydrophobic A:PHE172>
0

> <Hydrophobic A:ARG174>
0

> <Hydrophobic A:PHE175>
0

> <Hydrophobic A:LEU178>
0

> <Hydrophobic A:ILE179>
0

> <Hydrophobic A:VAL180>
0

> <Hydrophobic A:LEU181>
0

> <Hydrophobic A:PHE186>
0

> <Hydrophobic A:ILE187>
0

> <Hydrophobic A:PHE188>
0

> <Hydrophobic A:ILE189>
0

> <Hydrophobic A:PRO190>
0

> <Hydrophobic A:PHE191>
0

> <Hydrophobic A:TYR240>
0

> <Hydrophobic A:PHE243>
0

> <Hydrophobic A:PHE247>
0

> <Hydrophobic A:PHE248>
0

> <Hydrophobic A:VAL251>
0

> <Hydrophobic A:TRP252>
0

> <Hydrophobic A:SER254>
0

> <Hydrophobic A:LEU261>
0

> <Hydrophobic A:ILE262>
0

> <Hydrophobic A:ILE263>
0

> <Hydrophobic A:TYR272>
0

> <Hydrophobic A:PRO273>
0

> <HydrogenBond A:LYS6>
0

> <HydrogenBond A:ARG55>
0

> <HydrogenBond A:GLY64>
0

> <HydrogenBond A:SER65>
0

> <HydrogenBond A:TRP66>
0

> <HydrogenBond A:SER69>
0

> <HydrogenBond A:PRO73>
0

> <HydrogenBond A:ALA74>
0

> <HydrogenBond A:PHE76>
0

> <HydrogenBond A:ALA77>
0

> <HydrogenBond A:THR78>
0

> <HydrogenBond A:GLU79>
0

> <HydrogenBond A:PHE82>
0

> <HydrogenBond A:ARG83>
0

> <HydrogenBond A:LEU85>
0

> <HydrogenBond A:THR86>
2

> <HydrogenBond A:TRP89>
0

> <HydrogenBond A:THR90>
0

> <HydrogenBond A:ASN93>
0

> <HydrogenBond A:HIS94>
2

> <HydrogenBond A:SER96>
0

> <HydrogenBond A:TRP98>
1

> <HydrogenBond A:ASN144>
0

> <HydrogenBond A:HIS151>
0

> <HydrogenBond A:ILE152>
0

> <HydrogenBond A:ALA154>
0

> <HydrogenBond A:SER155>
0

> <HydrogenBond A:ILE156>
0

> <HydrogenBond A:GLY158>
0

> <HydrogenBond A:TYR159>
0

> <HydrogenBond A:ASN162>
0

> <HydrogenBond A:LYS163>
0

> <HydrogenBond A:SER167>
0

> <HydrogenBond A:ASP168>
0

> <HydrogenBond A:SER169>
0

> <HydrogenBond A:ASN171>
0

> <HydrogenBond A:PHE172>
0

> <HydrogenBond A:THR173>
0

> <HydrogenBond A:ARG174>
0

> <HydrogenBond A:PHE175>
0

> <HydrogenBond A:SER176>
0

> <HydrogenBond A:SER177>
0

> <HydrogenBond A:ILE179>
0

> <HydrogenBond A:VAL180>
0

> <HydrogenBond A:SER183>
0

> <HydrogenBond A:THR184>
0

> <HydrogenBond A:PHE186>
0

> <HydrogenBond A:ILE187>
0

> <HydrogenBond A:PRO190>
0

> <HydrogenBond A:TYR240>
0

> <HydrogenBond A:PHE243>
0

> <HydrogenBond A:SER244>
0

> <HydrogenBond A:PHE247>
0

> <HydrogenBond A:VAL251>
0

> <HydrogenBond A:SER254>
0

> <HydrogenBond A:GLU255>
0

> <HydrogenBond A:ARG256>
0

> <HydrogenBond A:LEU257>
0

> <HydrogenBond A:GLU258>
0

> <HydrogenBond A:GLU259>
0

> <HydrogenBond A:ILE262>
0

> <HydrogenBond A:SER265>
0

> <HydrogenBond A:GLN266>
0

> <HydrogenBond A:MET268>
0

> <HydrogenBond A:GLY269>
0

> <HydrogenBond A:PRO273>
0

> <Other A:SER69>
0

> <Other A:TRP89>
0

> <Other A:TYR159>
0

> <Other A:PHE172>
0

> <Other A:SER176>
0

> <Other A:SER265>
0

$$$$
9796304
  SciTegic09122300493D

 54 53  0  0  0  0            999 V2000
   14.0412    4.9981  -10.7997 O   0  0  0  1  0  0
   11.8559    5.6804  -11.9513 O   0  5  0  1  0  0
   10.7601    6.0883  -10.1369 O   0  0  0  1  0  0
    6.5117    8.9762   -1.6826 C   0  0  0  1  0  0
   12.3376    4.1063   -6.2916 C   0  0  0  1  0  0
   12.0456    4.6981   -4.8986 C   0  0  0  1  0  0
    6.4346    9.6583   -3.0085 C   0  0  0  1  0  0
    7.0553    9.9314   -0.6097 C   0  0  0  1  0  0
   12.3127    5.1146   -7.4561 C   0  0  0  1  0  0
   10.5431    4.8156   -4.5400 C   0  0  0  1  0  0
    7.7995   10.0217   -3.5548 C   0  0  0  1  0  0
    6.1360   11.1124   -0.2477 C   0  0  0  1  0  0
   12.8957    4.5074   -8.7471 C   0  0  0  1  0  0
   10.0348    6.2092   -4.9428 C   0  0  0  1  0  0
    8.7244    8.9167   -4.0810 C   0  0  0  1  0  0
    6.6344   12.5922   -0.3537 C   0  0  0  1  0  0
    8.5955    6.6047   -5.1237 C   0  0  0  1  0  0
    8.0439    7.7831   -4.7916 C   0  0  0  1  0  0
   13.0800    5.5072   -9.9057 C   0  0  2  1  0  0
    6.8894   13.1723   -1.7662 C   0  0  0  1  0  0
   11.7917    5.7695  -10.7196 C   0  0  0  1  0  0
   13.6028    5.0611  -11.6476 H   0  0
    7.1366    8.1227   -1.8847 H   0  0
    5.5590    8.5594   -1.3643 H   0  0
   13.3389    3.6743   -6.2558 H   0  0
   11.6670    3.2722   -6.5008 H   0  0
   12.5517    4.0700   -4.1697 H   0  0
   12.5454    5.6613   -4.7915 H   0  0
    5.9045   10.5786   -2.8283 H   0  0
    5.8646    9.0853   -3.7300 H   0  0
    8.0717   10.2477   -0.8121 H   0  0
    7.0990    9.3139    0.2723 H   0  0
   11.2968    5.4581   -7.6441 H   0  0
   12.8937    5.9972   -7.1851 H   0  0
   10.4244    4.6908   -3.4670 H   0  0
    9.9863    3.9838   -4.9653 H   0  0
    8.3470   10.5934   -2.8130 H   0  0
    7.5502   10.6922   -4.3606 H   0  0
    5.9540   10.9439    0.8138 H   0  0
    5.1706   10.9795   -0.7298 H   0  0
   12.2870    3.6644   -9.0764 H   0  0
   13.8770    4.0956   -8.5105 H   0  0
   10.5671    6.5380   -5.8353 H   0  0
   10.3663    6.7931   -4.1024 H   0  0
    9.4332    9.3769   -4.7681 H   0  0
    9.3253    8.5223   -3.2631 H   0  0
    7.4639   12.7448    0.3316 H   0  0
    5.9109   13.2766    0.0821 H   0  0
    7.9350    5.8580   -5.4759 H   0  0
    7.0043    7.9270   -5.0030 H   0  0
   13.4543    6.4600   -9.5255 H   0  0
    6.7372   12.4354   -2.5459 H   0  0
    7.8724   13.5871   -1.9112 H   0  0
    6.2254   14.0133   -1.9721 H   0  0
  1 19  1  0
  2 21  1  0
  3 21  2  0
  4  7  1  0
  4  8  1  0
  5  6  1  0
  5  9  1  0
  6 10  1  0
  7 11  1  0
  8 12  1  0
  9 13  1  0
 10 14  1  0
 11 15  1  0
 12 16  1  0
 13 19  1  0
 14 17  1  0
 15 18  1  0
 16 20  1  0
 17 18  2  0
 19 21  1  0
  1 22  1  0
  4 23  1  0
  4 24  1  0
  5 25  1  0
  5 26  1  0
  6 27  1  0
  6 28  1  0
  7 29  1  0
  7 30  1  0
  8 31  1  0
  8 32  1  0
  9 33  1  0
  9 34  1  0
 10 35  1  0
 10 36  1  0
 11 37  1  0
 11 38  1  0
 12 39  1  0
 12 40  1  0
 13 41  1  0
 13 42  1  0
 14 43  1  0
 14 44  1  0
 15 45  1  0
 15 46  1  0
 16 47  1  0
 16 48  1  0
 17 49  1  0
 18 50  1  0
 19 51  1  0
 20 52  1  0
 20 53  1  0
 20 54  1  0
M  CHG  1   2  -1
M  END
> <Name>
9796304

> <Binding Energy>
-13.5107

> <Ligand Energy>
37.76

> <Protein Energy>
-7801.1566

> <Complex Energy>
-7776.9073

> <Complex Entropy>
-31.4811

> <Protein Entropy>
-31.4717

> <Ligand Entropy>
-19.8716

> <Entropic Energy>
19.8621

> <AbsoluteEnergy>
26.4191

> <ConfNumber>
167

> <Ionization pH>
7.5

> <IonizationIndex>
1

> <MOL_NUMBER>
855

> <NumberOfIonizations>
1

> <NumberOfStereoisomers>
2

> <NumberOfTautomers>
1

> <PUBCHEM_ATOM_DEF_STEREO_COUNT>
0

> <PUBCHEM_ATOM_UDEF_STEREO_COUNT>
1

> <PUBCHEM_BONDANNOTATIONS>
19  48  3

> <PUBCHEM_BOND_DEF_STEREO_COUNT>
1

> <PUBCHEM_BOND_UDEF_STEREO_COUNT>
0

> <PUBCHEM_CACTVS_COMPLEXITY>
261

> <PUBCHEM_CACTVS_HBOND_ACCEPTOR>
3

> <PUBCHEM_CACTVS_HBOND_DONOR>
2

> <PUBCHEM_CACTVS_ROTATABLE_BOND>
15

> <PUBCHEM_CACTVS_SUBSKEYS>
AAADcfB4MAAAAAAAAAAAAAAAAAAAAAAAAAAAAAAAAAAAAAAAAAAAGgAACAAACBSggAICCAAAAgCIACDSCAIAAAAgAAAICAFAAAgBEBIAAQAAQAAEgAAJAAOIyKCAAAAAAAAAAAAAAAAAAAAAAAAAAAAAAA==

> <PUBCHEM_CACTVS_TAUTO_COUNT>
1

> <PUBCHEM_CACTVS_TPSA>
57.5

> <PUBCHEM_COMPONENT_COUNT>
1

> <PUBCHEM_COMPOUND_CANONICALIZED>
1

> <PUBCHEM_COMPOUND_CID>
9796304

> <PUBCHEM_COORDINATE_TYPE>
1
5
255

> <PUBCHEM_EXACT_MASS>
298.25079494

> <PUBCHEM_HEAVY_ATOM_COUNT>
21

> <PUBCHEM_ISOTOPIC_ATOM_COUNT>
0

> <PUBCHEM_IUPAC_CAS_NAME>
(Z)-2-hydroxy-9-octadecenoic acid

> <PUBCHEM_IUPAC_INCHI>
InChI=1S/C18H34O3/c1-2-3-4-5-6-7-8-9-10-11-12-13-14-15-16-17(19)18(20)21/h9-10,17,19H,2-8,11-16H2,1H3,(H,20,21)/b10-9-

> <PUBCHEM_IUPAC_INCHIKEY>
JBSOOFITVPOOSY-KTKRTIGZSA-N

> <PUBCHEM_IUPAC_NAME>
(Z)-2-hydroxyoctadec-9-enoic acid

> <PUBCHEM_IUPAC_NAME_MARKUP>
(<I>Z</I>)-2-hydroxyoctadec-9-enoic acid

> <PUBCHEM_IUPAC_OPENEYE_NAME>
(Z)-2-hydroxyoctadec-9-enoic acid

> <PUBCHEM_IUPAC_SYSTEMATIC_NAME>
(Z)-2-oxidanyloctadec-9-enoic acid

> <PUBCHEM_IUPAC_TRADITIONAL_NAME>
(Z)-2-hydroxyoctadec-9-enoic acid

> <PUBCHEM_MOLECULAR_FORMULA>
C18H34O3

> <PUBCHEM_MOLECULAR_WEIGHT>
298.5

> <PUBCHEM_MONOISOTOPIC_WEIGHT>
298.25079494

> <PUBCHEM_OPENEYE_CAN_SMILES>
CCCCCCCCC=CCCCCCCC(C(=O)O)O

> <PUBCHEM_OPENEYE_ISO_SMILES>
CCCCCCCC/C=C\CCCCCCC(C(=O)O)O

> <PUBCHEM_TOTAL_CHARGE>
0

> <PUBCHEM_XLOGP3_AA>
6.5

> <RelativeEnergy>
10.9781

> <StereoisomerIndex>
2

> <TautomerIndex>
1

> <POSE_NUMBER>
9

> <LibDockScore>
117.4133

> <HotSpots>
8.01,10.07,-2.25,A,50,8
8.41,8.07,-4.86,A,38,11
6.61,11.87,-1.46,A,53,16

> <-In-Situ Starting Energy>
-1207.00622

> <-In-Situ Final Energy>
-14.2113204

> <In-Situ Gradient>
0.0008543156479

> <Favorable Total>
5

> <Unfavorable Total>
0

> <Charge Total>
0

> <Hydrophobic Total>
2

> <HydrogenBond Total>
3

> <Other Total>
0

> <Favorable A:LYS6>
0

> <Favorable A:ARG55>
0

> <Favorable A:LEU58>
0

> <Favorable A:LEU61>
0

> <Favorable A:ILE62>
0

> <Favorable A:GLY64>
0

> <Favorable A:SER65>
0

> <Favorable A:TRP66>
0

> <Favorable A:SER69>
0

> <Favorable A:VAL70>
0

> <Favorable A:PRO73>
0

> <Favorable A:ALA74>
0

> <Favorable A:PHE76>
0

> <Favorable A:ALA77>
0

> <Favorable A:THR78>
0

> <Favorable A:GLU79>
0

> <Favorable A:PHE82>
0

> <Favorable A:ARG83>
0

> <Favorable A:LEU85>
0

> <Favorable A:THR86>
3

> <Favorable A:TRP89>
0

> <Favorable A:THR90>
0

> <Favorable A:ASN93>
0

> <Favorable A:HIS94>
1

> <Favorable A:SER96>
0

> <Favorable A:VAL97>
0

> <Favorable A:TRP98>
0

> <Favorable A:PHE140>
0

> <Favorable A:LEU141>
0

> <Favorable A:ASN144>
0

> <Favorable A:ILE148>
0

> <Favorable A:ILE150>
0

> <Favorable A:HIS151>
0

> <Favorable A:ILE152>
0

> <Favorable A:ALA154>
0

> <Favorable A:SER155>
0

> <Favorable A:ILE156>
0

> <Favorable A:GLY158>
0

> <Favorable A:TYR159>
0

> <Favorable A:ARG160>
0

> <Favorable A:ARG161>
0

> <Favorable A:ASN162>
0

> <Favorable A:LYS163>
0

> <Favorable A:SER167>
0

> <Favorable A:ASP168>
0

> <Favorable A:SER169>
0

> <Favorable A:ASN171>
0

> <Favorable A:PHE172>
0

> <Favorable A:THR173>
0

> <Favorable A:ARG174>
0

> <Favorable A:PHE175>
0

> <Favorable A:SER176>
0

> <Favorable A:SER177>
0

> <Favorable A:LEU178>
0

> <Favorable A:ILE179>
0

> <Favorable A:VAL180>
0

> <Favorable A:LEU181>
0

> <Favorable A:SER183>
0

> <Favorable A:THR184>
0

> <Favorable A:PHE186>
1

> <Favorable A:ILE187>
0

> <Favorable A:PHE188>
0

> <Favorable A:ILE189>
0

> <Favorable A:PRO190>
0

> <Favorable A:PHE191>
0

> <Favorable A:TYR240>
0

> <Favorable A:PHE243>
0

> <Favorable A:SER244>
0

> <Favorable A:PHE247>
0

> <Favorable A:PHE248>
0

> <Favorable A:VAL251>
0

> <Favorable A:TRP252>
0

> <Favorable A:SER254>
0

> <Favorable A:GLU255>
0

> <Favorable A:ARG256>
0

> <Favorable A:LEU257>
0

> <Favorable A:GLU258>
0

> <Favorable A:GLU259>
0

> <Favorable A:LEU261>
0

> <Favorable A:ILE262>
0

> <Favorable A:ILE263>
0

> <Favorable A:SER265>
0

> <Favorable A:GLN266>
0

> <Favorable A:MET268>
0

> <Favorable A:GLY269>
0

> <Favorable A:TYR272>
0

> <Favorable A:PRO273>
0

> <Unfavorable A:ARG55>
0

> <Unfavorable A:PRO73>
0

> <Unfavorable A:PHE76>
0

> <Unfavorable A:GLU79>
0

> <Unfavorable A:ARG83>
0

> <Unfavorable A:THR86>
0

> <Unfavorable A:TRP89>
0

> <Unfavorable A:THR90>
0

> <Unfavorable A:ASN93>
0

> <Unfavorable A:TRP98>
0

> <Unfavorable A:ASN144>
0

> <Unfavorable A:SER155>
0

> <Unfavorable A:GLY158>
0

> <Unfavorable A:TYR159>
0

> <Unfavorable A:ASN162>
0

> <Unfavorable A:ASP168>
0

> <Unfavorable A:ASN171>
0

> <Unfavorable A:THR173>
0

> <Unfavorable A:ARG174>
0

> <Unfavorable A:SER183>
0

> <Unfavorable A:THR184>
0

> <Unfavorable A:PHE186>
0

> <Unfavorable A:SER244>
0

> <Unfavorable A:SER254>
0

> <Unfavorable A:GLU255>
0

> <Unfavorable A:SER265>
0

> <Unfavorable A:GLN266>
0

> <Unfavorable A:GLY269>
0

> <Charge A:ARG55>
0

> <Charge A:PHE76>
0

> <Charge A:GLU79>
0

> <Charge A:PHE82>
0

> <Charge A:ARG83>
0

> <Charge A:TRP89>
0

> <Charge A:HIS94>
0

> <Charge A:TRP98>
0

> <Charge A:TYR159>
0

> <Charge A:ARG161>
0

> <Charge A:LYS163>
0

> <Charge A:ASP168>
0

> <Charge A:PHE172>
0

> <Charge A:ARG174>
0

> <Charge A:PHE175>
0

> <Charge A:PHE188>
0

> <Charge A:PHE247>
0

> <Charge A:PHE248>
0

> <Hydrophobic A:LEU58>
0

> <Hydrophobic A:LEU61>
0

> <Hydrophobic A:ILE62>
0

> <Hydrophobic A:TRP66>
0

> <Hydrophobic A:VAL70>
0

> <Hydrophobic A:PRO73>
0

> <Hydrophobic A:ALA74>
0

> <Hydrophobic A:PHE76>
0

> <Hydrophobic A:ALA77>
0

> <Hydrophobic A:THR78>
0

> <Hydrophobic A:PHE82>
0

> <Hydrophobic A:ARG83>
0

> <Hydrophobic A:LEU85>
0

> <Hydrophobic A:TRP89>
0

> <Hydrophobic A:THR90>
0

> <Hydrophobic A:ASN93>
0

> <Hydrophobic A:HIS94>
1

> <Hydrophobic A:VAL97>
0

> <Hydrophobic A:TRP98>
0

> <Hydrophobic A:PHE140>
0

> <Hydrophobic A:LEU141>
0

> <Hydrophobic A:ILE148>
0

> <Hydrophobic A:ILE150>
0

> <Hydrophobic A:HIS151>
0

> <Hydrophobic A:ILE152>
0

> <Hydrophobic A:ALA154>
0

> <Hydrophobic A:SER155>
0

> <Hydrophobic A:ILE156>
0

> <Hydrophobic A:GLY158>
0

> <Hydrophobic A:TYR159>
0

> <Hydrophobic A:ARG160>
0

> <Hydrophobic A:ARG161>
0

> <Hydrophobic A:ASP168>
0

> <Hydrophobic A:ASN171>
0

> <Hydrophobic A:PHE172>
0

> <Hydrophobic A:ARG174>
0

> <Hydrophobic A:PHE175>
0

> <Hydrophobic A:LEU178>
0

> <Hydrophobic A:ILE179>
0

> <Hydrophobic A:VAL180>
0

> <Hydrophobic A:LEU181>
0

> <Hydrophobic A:PHE186>
1

> <Hydrophobic A:ILE187>
0

> <Hydrophobic A:PHE188>
0

> <Hydrophobic A:ILE189>
0

> <Hydrophobic A:PRO190>
0

> <Hydrophobic A:PHE191>
0

> <Hydrophobic A:TYR240>
0

> <Hydrophobic A:PHE243>
0

> <Hydrophobic A:PHE247>
0

> <Hydrophobic A:PHE248>
0

> <Hydrophobic A:VAL251>
0

> <Hydrophobic A:TRP252>
0

> <Hydrophobic A:SER254>
0

> <Hydrophobic A:LEU261>
0

> <Hydrophobic A:ILE262>
0

> <Hydrophobic A:ILE263>
0

> <Hydrophobic A:TYR272>
0

> <Hydrophobic A:PRO273>
0

> <HydrogenBond A:LYS6>
0

> <HydrogenBond A:ARG55>
0

> <HydrogenBond A:GLY64>
0

> <HydrogenBond A:SER65>
0

> <HydrogenBond A:TRP66>
0

> <HydrogenBond A:SER69>
0

> <HydrogenBond A:PRO73>
0

> <HydrogenBond A:ALA74>
0

> <HydrogenBond A:PHE76>
0

> <HydrogenBond A:ALA77>
0

> <HydrogenBond A:THR78>
0

> <HydrogenBond A:GLU79>
0

> <HydrogenBond A:PHE82>
0

> <HydrogenBond A:ARG83>
0

> <HydrogenBond A:LEU85>
0

> <HydrogenBond A:THR86>
3

> <HydrogenBond A:TRP89>
0

> <HydrogenBond A:THR90>
0

> <HydrogenBond A:ASN93>
0

> <HydrogenBond A:HIS94>
0

> <HydrogenBond A:SER96>
0

> <HydrogenBond A:TRP98>
0

> <HydrogenBond A:ASN144>
0

> <HydrogenBond A:HIS151>
0

> <HydrogenBond A:ILE152>
0

> <HydrogenBond A:ALA154>
0

> <HydrogenBond A:SER155>
0

> <HydrogenBond A:ILE156>
0

> <HydrogenBond A:GLY158>
0

> <HydrogenBond A:TYR159>
0

> <HydrogenBond A:ASN162>
0

> <HydrogenBond A:LYS163>
0

> <HydrogenBond A:SER167>
0

> <HydrogenBond A:ASP168>
0

> <HydrogenBond A:SER169>
0

> <HydrogenBond A:ASN171>
0

> <HydrogenBond A:PHE172>
0

> <HydrogenBond A:THR173>
0

> <HydrogenBond A:ARG174>
0

> <HydrogenBond A:PHE175>
0

> <HydrogenBond A:SER176>
0

> <HydrogenBond A:SER177>
0

> <HydrogenBond A:ILE179>
0

> <HydrogenBond A:VAL180>
0

> <HydrogenBond A:SER183>
0

> <HydrogenBond A:THR184>
0

> <HydrogenBond A:PHE186>
0

> <HydrogenBond A:ILE187>
0

> <HydrogenBond A:PRO190>
0

> <HydrogenBond A:TYR240>
0

> <HydrogenBond A:PHE243>
0

> <HydrogenBond A:SER244>
0

> <HydrogenBond A:PHE247>
0

> <HydrogenBond A:VAL251>
0

> <HydrogenBond A:SER254>
0

> <HydrogenBond A:GLU255>
0

> <HydrogenBond A:ARG256>
0

> <HydrogenBond A:LEU257>
0

> <HydrogenBond A:GLU258>
0

> <HydrogenBond A:GLU259>
0

> <HydrogenBond A:ILE262>
0

> <HydrogenBond A:SER265>
0

> <HydrogenBond A:GLN266>
0

> <HydrogenBond A:MET268>
0

> <HydrogenBond A:GLY269>
0

> <HydrogenBond A:PRO273>
0

> <Other A:SER69>
0

> <Other A:TRP89>
0

> <Other A:TYR159>
0

> <Other A:PHE172>
0

> <Other A:SER176>
0

> <Other A:SER265>
0

$$$$
69964214
  SciTegic09122300493D

 75 79  0  0  0  0            999 V2000
   18.5582    0.6995  -11.4515 O   0  0  0  1  0  0
   20.5127    2.6363   -9.0323 O   0  0  0  1  0  0
   17.2289    2.3302  -12.4000 O   0  0  0  1  0  0
   21.1742    0.7794  -12.6575 O   0  0  0  1  0  0
   18.2774    2.4758   -9.0567 O   0  0  0  1  0  0
   23.2904    1.1962  -10.8902 O   0  0  0  1  0  0
   17.4269   -0.6692  -14.2499 O   0  0  0  1  0  0
   14.9507   -0.2009  -14.4922 O   0  0  0  1  0  0
   14.8259    2.4783  -15.0477 O   0  0  0  1  0  0
   22.6075    4.4073   -9.0805 O   0  0  0  1  0  0
   13.7980    1.9982  -10.5404 O   0  0  0  1  0  0
   15.7821   -1.4829   -7.8314 O   0  0  0  1  0  0
   13.4203   -1.6594   -9.0483 O   0  0  0  1  0  0
    8.5729    4.2517  -13.3033 O   0  0  0  1  0  0
   11.0212    5.2846  -13.0542 O   0  0  0  1  0  0
   19.5587    1.5744  -10.9579 C   0  0  2  1  0  0
   20.9376    0.9864  -11.2747 C   0  0  2  1  0  0
   22.0603    1.8637  -10.6898 C   0  0  1  1  0  0
   17.9269    1.1263  -12.6432 C   0  0  2  1  0  0
   16.9339    0.0514  -13.1278 C   0  0  1  1  0  0
   19.4572    1.7886   -9.4308 C   0  0  1  1  0  0
   21.8133    2.1063   -9.1948 C   0  0  1  1  0  0
   15.6558    0.7028  -13.6660 C   0  0  1  1  0  0
   16.0062    1.9563  -14.4700 C   0  0  2  1  0  0
   16.6640    2.9829  -13.5241 C   0  0  2  1  0  0
   22.8085    3.0950   -8.5801 C   0  0  0  1  0  0
   17.7377    3.8392  -14.2028 C   0  0  0  1  0  0
   17.1258    1.7025   -9.0557 C   0  0  0  1  0  0
   16.0265    2.2199   -9.7184 C   0  0  0  1  0  0
   17.0187    0.4748   -8.4033 C   0  0  0  1  0  0
   14.8626    1.4801   -9.8230 C   0  0  0  1  0  0
   15.8462   -0.2658   -8.4861 C   0  0  0  1  0  0
   14.7740    0.2287   -9.2269 C   0  0  0  1  0  0
   13.5424   -0.5337   -9.4179 C   0  0  0  1  0  0
   12.6159    1.3389  -10.6665 C   0  0  0  1  0  0
   12.4368    0.1122  -10.1349 C   0  0  0  1  0  0
   11.5538    2.0398  -11.4004 C   0  0  0  1  0  0
   11.7949    3.3227  -11.8904 C   0  0  0  1  0  0
   10.3042    1.4571  -11.6068 C   0  0  0  1  0  0
   10.7900    4.0225  -12.5395 C   0  0  0  1  0  0
    9.3028    2.1582  -12.2514 C   0  0  0  1  0  0
    9.5335    3.4551  -12.6990 C   0  0  0  1  0  0
    7.3205    3.6347  -13.5411 C   0  0  0  1  0  0
   21.1595    1.6165  -13.1062 H   0  0
   23.3020    0.8437  -11.7773 H   0  0
   18.2984   -1.0059  -14.0580 H   0  0
   15.6157   -0.6897  -14.9793 H   0  0
   14.3260    1.7412  -15.3998 H   0  0
   23.1935    5.0458   -8.6501 H   0  0
   14.8623   -1.7529   -7.7147 H   0  0
   10.3153    5.4321  -13.6780 H   0  0
   19.4762    2.5380  -11.4462 H   0  0
   20.9850    0.0022  -10.8042 H   0  0
   22.0998    2.8443  -11.1751 H   0  0
   18.6811    1.3184  -13.4053 H   0  0
   16.6681   -0.6305  -12.3162 H   0  0
   19.5557    0.8438   -8.8958 H   0  0
   21.8853    1.1583   -8.6579 H   0  0
   14.9993    0.9732  -12.8369 H   0  0
   16.7107    1.7014  -15.2691 H   0  0
   15.8890    3.6469  -13.1407 H   0  0
   23.8320    2.7580   -8.7561 H   0  0
   22.6485    3.0973   -7.5086 H   0  0
   18.5515    3.2263  -14.5858 H   0  0
   18.1631    4.5527  -13.4962 H   0  0
   17.3237    4.3999  -15.0395 H   0  0
   16.1007    3.1851  -10.1972 H   0  0
   17.8371    0.0855   -7.8170 H   0  0
   11.5291   -0.4514  -10.1932 H   0  0
   12.7574    3.7987  -11.7746 H   0  0
   10.0540    0.4646  -11.2694 H   0  0
    8.3477    1.6715  -12.3683 H   0  0
    6.8444    3.3263  -12.6138 H   0  0
    7.4260    2.7764  -14.2063 H   0  0
    6.6541    4.3474  -14.0244 H   0  0
  1 16  1  0
  1 19  1  0
  2 21  1  0
  2 22  1  0
  3 19  1  0
  3 25  1  0
  4 17  1  0
  5 21  1  0
  5 28  1  0
  6 18  1  0
  7 20  1  0
  8 23  1  0
  9 24  1  0
 10 26  1  0
 11 31  1  0
 11 35  1  0
 12 32  1  0
 13 34  2  0
 14 42  1  0
 14 43  1  0
 15 40  1  0
 16 17  1  0
 16 21  1  0
 17 18  1  0
 18 22  1  0
 19 20  1  0
 20 23  1  0
 22 26  1  0
 23 24  1  0
 24 25  1  0
 25 27  1  0
 28 29  2  0
 28 30  1  0
 29 31  1  0
 30 32  2  0
 31 33  2  0
 32 33  1  0
 33 34  1  0
 34 36  1  0
 35 36  2  0
 35 37  1  0
 37 38  2  0
 37 39  1  0
 38 40  1  0
 39 41  2  0
 40 42  2  0
 41 42  1  0
  4 44  1  0
  6 45  1  0
  7 46  1  0
  8 47  1  0
  9 48  1  0
 10 49  1  0
 12 50  1  0
 15 51  1  0
 16 52  1  0
 17 53  1  0
 18 54  1  0
 19 55  1  0
 20 56  1  0
 21 57  1  0
 22 58  1  0
 23 59  1  0
 24 60  1  0
 25 61  1  0
 26 62  1  0
 26 63  1  0
 27 64  1  0
 27 65  1  0
 27 66  1  0
 29 67  1  0
 30 68  1  0
 36 69  1  0
 38 70  1  0
 39 71  1  0
 41 72  1  0
 43 73  1  0
 43 74  1  0
 43 75  1  0
M  END
> <Name>
69964214

> <Binding Energy>
-68.3278

> <Ligand Energy>
60.5166

> <Protein Energy>
-7801.1566

> <Complex Energy>
-7808.9678

> <Complex Entropy>
-31.4954

> <Protein Entropy>
-31.4717

> <Ligand Entropy>
-21.212

> <Entropic Energy>
21.1883

> <AbsoluteEnergy>
88.6753

> <ConfNumber>
116

> <Ionization pH>
7.5

> <IonizationIndex>
1

> <MOL_NUMBER>
879

> <NumberOfIonizations>
1

> <NumberOfStereoisomers>
1

> <NumberOfTautomers>
2

> <PUBCHEM_ATOM_DEF_STEREO_COUNT>
10

> <PUBCHEM_ATOM_UDEF_STEREO_COUNT>
0

> <PUBCHEM_BONDANNOTATIONS>
16  1  6
19  1  6
11  31  8
11  35  8
22  26  5
25  27  5
28  29  8
28  30  8
29  31  8
30  32  8
31  33  8
32  33  8
33  34  8
34  36  8
35  36  8
37  38  8
37  39  8
38  40  8
39  41  8
17  4  5
40  42  8
41  42  8
21  5  5
18  6  6
20  7  5
23  8  5
24  9  6

> <PUBCHEM_BOND_DEF_STEREO_COUNT>
0

> <PUBCHEM_BOND_UDEF_STEREO_COUNT>
0

> <PUBCHEM_CACTVS_COMPLEXITY>
995

> <PUBCHEM_CACTVS_HBOND_ACCEPTOR>
15

> <PUBCHEM_CACTVS_HBOND_DONOR>
8

> <PUBCHEM_CACTVS_ROTATABLE_BOND>
7

> <PUBCHEM_CACTVS_SUBSKEYS>
AAADcfB4PAAAAAAAAAAAAAAAAAAAAAAAAAA0aIECAAAAAACBQAAAGgAACAAADBSwmAMyDoAABgCIAqBSAAACCAAkIAAIiAEGiMgdNzaGNRqieWOl4BUPuQfI7LzOIAABCAAIQABAAAIQABCAAAAAAAAAAA==

> <PUBCHEM_CACTVS_TAUTO_COUNT>
-1

> <PUBCHEM_CACTVS_TPSA>
234

> <PUBCHEM_COMPONENT_COUNT>
1

> <PUBCHEM_COMPOUND_CANONICALIZED>
1

> <PUBCHEM_COMPOUND_CID>
69964214

> <PUBCHEM_COORDINATE_TYPE>
1
5
255

> <PUBCHEM_EXACT_MASS>
608.17412031

> <PUBCHEM_HEAVY_ATOM_COUNT>
43

> <PUBCHEM_ISOTOPIC_ATOM_COUNT>
0

> <PUBCHEM_IUPAC_CAS_NAME>
7-[[(2S,3R,4S,5S,6R)-4,5-dihydroxy-6-(hydroxymethyl)-3-[[(2S,3R,4R,5R,6S)-3,4,5-trihydroxy-6-methyl-2-oxanyl]oxy]-2-oxanyl]oxy]-5-hydroxy-2-(3-hydroxy-4-methoxyphenyl)-1-benzopyran-4-one

> <PUBCHEM_IUPAC_INCHI>
InChI=1S/C28H32O15/c1-10-21(33)23(35)25(37)27(39-10)43-26-24(36)22(34)19(9-29)42-28(26)40-12-6-14(31)20-15(32)8-17(41-18(20)7-12)11-3-4-16(38-2)13(30)5-11/h3-8,10,19,21-31,33-37H,9H2,1-2H3/t10-,19+,21
-,22+,23+,24-,25+,26+,27-,28+/m0/s1

> <PUBCHEM_IUPAC_INCHIKEY>
VCCNKWWXYVWTLT-CYZBKYQRSA-N

> <PUBCHEM_IUPAC_NAME>
7-[(2S,3R,4S,5S,6R)-4,5-dihydroxy-6-(hydroxymethyl)-3-[(2S,3R,4R,5R,6S)-3,4,5-trihydroxy-6-methyloxan-2-yl]oxyoxan-2-yl]oxy-5-hydroxy-2-(3-hydroxy-4-methoxyphenyl)chromen-4-one

> <PUBCHEM_IUPAC_NAME_MARKUP>
7-[(2<I>S</I>,3<I>R</I>,4<I>S</I>,5<I>S</I>,6<I>R</I>)-4,5-dihydroxy-6-(hydroxymethyl)-3-[(2<I>S</I>,3<I>R</I>,4<I>R</I>,5<I>R</I>,6<I>S</I>)-3,4,5-trihydroxy-6-methyloxan-2-yl]oxyoxan-2-yl]oxy-5-hydr
oxy-2-(3-hydroxy-4-methoxyphenyl)chromen-4-one

> <PUBCHEM_IUPAC_OPENEYE_NAME>
7-[(2S,3R,4S,5S,6R)-4,5-dihydroxy-6-(hydroxymethyl)-3-[(2S,3R,4R,5R,6S)-3,4,5-trihydroxy-6-methyl-tetrahydropyran-2-yl]oxy-tetrahydropyran-2-yl]oxy-5-hydroxy-2-(3-hydroxy-4-methoxy-phenyl)chromen-4-on
e

> <PUBCHEM_IUPAC_SYSTEMATIC_NAME>
7-[(2S,3R,4S,5S,6R)-6-(hydroxymethyl)-3-[(2S,3R,4R,5R,6S)-6-methyl-3,4,5-tris(oxidanyl)oxan-2-yl]oxy-4,5-bis(oxidanyl)oxan-2-yl]oxy-2-(4-methoxy-3-oxidanyl-phenyl)-5-oxidanyl-chromen-4-one

> <PUBCHEM_IUPAC_TRADITIONAL_NAME>
7-[(2S,3R,4S,5S,6R)-4,5-dihydroxy-6-methylol-3-[(2S,3R,4R,5R,6S)-3,4,5-trihydroxy-6-methyl-tetrahydropyran-2-yl]oxy-tetrahydropyran-2-yl]oxy-5-hydroxy-2-(3-hydroxy-4-methoxy-phenyl)chromone

> <PUBCHEM_MOLECULAR_FORMULA>
C28H32O15

> <PUBCHEM_MOLECULAR_WEIGHT>
608.5

> <PUBCHEM_MONOISOTOPIC_WEIGHT>
608.17412031

> <PUBCHEM_OPENEYE_CAN_SMILES>
CC1C(C(C(C(O1)OC2C(C(C(OC2OC3=CC(=C4C(=C3)OC(=CC4=O)C5=CC(=C(C=C5)OC)O)O)CO)O)O)O)O)O

> <PUBCHEM_OPENEYE_ISO_SMILES>
C[C@H]1[C@@H]([C@H]([C@H]([C@@H](O1)O[C@@H]2[C@H]([C@@H]([C@H](O[C@H]2OC3=CC(=C4C(=C3)OC(=CC4=O)C5=CC(=C(C=C5)OC)O)O)CO)O)O)O)O)O

> <PUBCHEM_TOTAL_CHARGE>
0

> <PUBCHEM_XLOGP3_AA>
-0.3

> <RelativeEnergy>
16.4434

> <StereoisomerIndex>
1

> <TautomerIndex>
1

> <POSE_NUMBER>
1

> <LibDockScore>
126.3739

> <HotSpots>
21.81,4.27,-8.86,P,37,10
11.01,5.47,-15.65,P,18,15
9.01,2.67,-14.05,A,21,41

> <-In-Situ Starting Energy>
-261.456838

> <-In-Situ Final Energy>
20.6832763

> <In-Situ Gradient>
0.000955833692

> <Favorable Total>
11

> <Unfavorable Total>
0

> <Charge Total>
0

> <Hydrophobic Total>
3

> <HydrogenBond Total>
8

> <Other Total>
0

> <Favorable A:LYS6>
0

> <Favorable A:ARG55>
0

> <Favorable A:LEU58>
0

> <Favorable A:LEU61>
0

> <Favorable A:ILE62>
0

> <Favorable A:GLY64>
0

> <Favorable A:SER65>
0

> <Favorable A:TRP66>
0

> <Favorable A:SER69>
0

> <Favorable A:VAL70>
0

> <Favorable A:PRO73>
0

> <Favorable A:ALA74>
0

> <Favorable A:PHE76>
0

> <Favorable A:ALA77>
0

> <Favorable A:THR78>
0

> <Favorable A:GLU79>
0

> <Favorable A:PHE82>
1

> <Favorable A:ARG83>
0

> <Favorable A:LEU85>
1

> <Favorable A:THR86>
1

> <Favorable A:TRP89>
0

> <Favorable A:THR90>
0

> <Favorable A:ASN93>
0

> <Favorable A:HIS94>
0

> <Favorable A:SER96>
0

> <Favorable A:VAL97>
0

> <Favorable A:TRP98>
0

> <Favorable A:PHE140>
0

> <Favorable A:LEU141>
0

> <Favorable A:ASN144>
0

> <Favorable A:ILE148>
0

> <Favorable A:ILE150>
0

> <Favorable A:HIS151>
0

> <Favorable A:ILE152>
0

> <Favorable A:ALA154>
0

> <Favorable A:SER155>
0

> <Favorable A:ILE156>
0

> <Favorable A:GLY158>
0

> <Favorable A:TYR159>
0

> <Favorable A:ARG160>
0

> <Favorable A:ARG161>
0

> <Favorable A:ASN162>
0

> <Favorable A:LYS163>
0

> <Favorable A:SER167>
0

> <Favorable A:ASP168>
0

> <Favorable A:SER169>
0

> <Favorable A:ASN171>
0

> <Favorable A:PHE172>
1

> <Favorable A:THR173>
1

> <Favorable A:ARG174>
0

> <Favorable A:PHE175>
0

> <Favorable A:SER176>
3

> <Favorable A:SER177>
1

> <Favorable A:LEU178>
0

> <Favorable A:ILE179>
0

> <Favorable A:VAL180>
0

> <Favorable A:LEU181>
0

> <Favorable A:SER183>
0

> <Favorable A:THR184>
0

> <Favorable A:PHE186>
0

> <Favorable A:ILE187>
0

> <Favorable A:PHE188>
0

> <Favorable A:ILE189>
0

> <Favorable A:PRO190>
0

> <Favorable A:PHE191>
0

> <Favorable A:TYR240>
0

> <Favorable A:PHE243>
0

> <Favorable A:SER244>
0

> <Favorable A:PHE247>
0

> <Favorable A:PHE248>
0

> <Favorable A:VAL251>
0

> <Favorable A:TRP252>
0

> <Favorable A:SER254>
0

> <Favorable A:GLU255>
0

> <Favorable A:ARG256>
0

> <Favorable A:LEU257>
0

> <Favorable A:GLU258>
0

> <Favorable A:GLU259>
0

> <Favorable A:LEU261>
0

> <Favorable A:ILE262>
1

> <Favorable A:ILE263>
0

> <Favorable A:SER265>
1

> <Favorable A:GLN266>
0

> <Favorable A:MET268>
0

> <Favorable A:GLY269>
0

> <Favorable A:TYR272>
0

> <Favorable A:PRO273>
0

> <Unfavorable A:ARG55>
0

> <Unfavorable A:PRO73>
0

> <Unfavorable A:PHE76>
0

> <Unfavorable A:GLU79>
0

> <Unfavorable A:ARG83>
0

> <Unfavorable A:THR86>
0

> <Unfavorable A:TRP89>
0

> <Unfavorable A:THR90>
0

> <Unfavorable A:ASN93>
0

> <Unfavorable A:TRP98>
0

> <Unfavorable A:ASN144>
0

> <Unfavorable A:SER155>
0

> <Unfavorable A:GLY158>
0

> <Unfavorable A:TYR159>
0

> <Unfavorable A:ASN162>
0

> <Unfavorable A:ASP168>
0

> <Unfavorable A:ASN171>
0

> <Unfavorable A:THR173>
0

> <Unfavorable A:ARG174>
0

> <Unfavorable A:SER183>
0

> <Unfavorable A:THR184>
0

> <Unfavorable A:PHE186>
0

> <Unfavorable A:SER244>
0

> <Unfavorable A:SER254>
0

> <Unfavorable A:GLU255>
0

> <Unfavorable A:SER265>
0

> <Unfavorable A:GLN266>
0

> <Unfavorable A:GLY269>
0

> <Charge A:ARG55>
0

> <Charge A:PHE76>
0

> <Charge A:GLU79>
0

> <Charge A:PHE82>
0

> <Charge A:ARG83>
0

> <Charge A:TRP89>
0

> <Charge A:HIS94>
0

> <Charge A:TRP98>
0

> <Charge A:TYR159>
0

> <Charge A:ARG161>
0

> <Charge A:LYS163>
0

> <Charge A:ASP168>
0

> <Charge A:PHE172>
0

> <Charge A:ARG174>
0

> <Charge A:PHE175>
0

> <Charge A:PHE188>
0

> <Charge A:PHE247>
0

> <Charge A:PHE248>
0

> <Hydrophobic A:LEU58>
0

> <Hydrophobic A:LEU61>
0

> <Hydrophobic A:ILE62>
0

> <Hydrophobic A:TRP66>
0

> <Hydrophobic A:VAL70>
0

> <Hydrophobic A:PRO73>
0

> <Hydrophobic A:ALA74>
0

> <Hydrophobic A:PHE76>
0

> <Hydrophobic A:ALA77>
0

> <Hydrophobic A:THR78>
0

> <Hydrophobic A:PHE82>
1

> <Hydrophobic A:ARG83>
0

> <Hydrophobic A:LEU85>
0

> <Hydrophobic A:TRP89>
0

> <Hydrophobic A:THR90>
0

> <Hydrophobic A:ASN93>
0

> <Hydrophobic A:HIS94>
0

> <Hydrophobic A:VAL97>
0

> <Hydrophobic A:TRP98>
0

> <Hydrophobic A:PHE140>
0

> <Hydrophobic A:LEU141>
0

> <Hydrophobic A:ILE148>
0

> <Hydrophobic A:ILE150>
0

> <Hydrophobic A:HIS151>
0

> <Hydrophobic A:ILE152>
0

> <Hydrophobic A:ALA154>
0

> <Hydrophobic A:SER155>
0

> <Hydrophobic A:ILE156>
0

> <Hydrophobic A:GLY158>
0

> <Hydrophobic A:TYR159>
0

> <Hydrophobic A:ARG160>
0

> <Hydrophobic A:ARG161>
0

> <Hydrophobic A:ASP168>
0

> <Hydrophobic A:ASN171>
0

> <Hydrophobic A:PHE172>
1

> <Hydrophobic A:ARG174>
0

> <Hydrophobic A:PHE175>
0

> <Hydrophobic A:LEU178>
0

> <Hydrophobic A:ILE179>
0

> <Hydrophobic A:VAL180>
0

> <Hydrophobic A:LEU181>
0

> <Hydrophobic A:PHE186>
0

> <Hydrophobic A:ILE187>
0

> <Hydrophobic A:PHE188>
0

> <Hydrophobic A:ILE189>
0

> <Hydrophobic A:PRO190>
0

> <Hydrophobic A:PHE191>
0

> <Hydrophobic A:TYR240>
0

> <Hydrophobic A:PHE243>
0

> <Hydrophobic A:PHE247>
0

> <Hydrophobic A:PHE248>
0

> <Hydrophobic A:VAL251>
0

> <Hydrophobic A:TRP252>
0

> <Hydrophobic A:SER254>
0

> <Hydrophobic A:LEU261>
0

> <Hydrophobic A:ILE262>
1

> <Hydrophobic A:ILE263>
0

> <Hydrophobic A:TYR272>
0

> <Hydrophobic A:PRO273>
0

> <HydrogenBond A:LYS6>
0

> <HydrogenBond A:ARG55>
0

> <HydrogenBond A:GLY64>
0

> <HydrogenBond A:SER65>
0

> <HydrogenBond A:TRP66>
0

> <HydrogenBond A:SER69>
0

> <HydrogenBond A:PRO73>
0

> <HydrogenBond A:ALA74>
0

> <HydrogenBond A:PHE76>
0

> <HydrogenBond A:ALA77>
0

> <HydrogenBond A:THR78>
0

> <HydrogenBond A:GLU79>
0

> <HydrogenBond A:PHE82>
0

> <HydrogenBond A:ARG83>
0

> <HydrogenBond A:LEU85>
1

> <HydrogenBond A:THR86>
1

> <HydrogenBond A:TRP89>
0

> <HydrogenBond A:THR90>
0

> <HydrogenBond A:ASN93>
0

> <HydrogenBond A:HIS94>
0

> <HydrogenBond A:SER96>
0

> <HydrogenBond A:TRP98>
0

> <HydrogenBond A:ASN144>
0

> <HydrogenBond A:HIS151>
0

> <HydrogenBond A:ILE152>
0

> <HydrogenBond A:ALA154>
0

> <HydrogenBond A:SER155>
0

> <HydrogenBond A:ILE156>
0

> <HydrogenBond A:GLY158>
0

> <HydrogenBond A:TYR159>
0

> <HydrogenBond A:ASN162>
0

> <HydrogenBond A:LYS163>
0

> <HydrogenBond A:SER167>
0

> <HydrogenBond A:ASP168>
0

> <HydrogenBond A:SER169>
0

> <HydrogenBond A:ASN171>
0

> <HydrogenBond A:PHE172>
0

> <HydrogenBond A:THR173>
1

> <HydrogenBond A:ARG174>
0

> <HydrogenBond A:PHE175>
0

> <HydrogenBond A:SER176>
3

> <HydrogenBond A:SER177>
1

> <HydrogenBond A:ILE179>
0

> <HydrogenBond A:VAL180>
0

> <HydrogenBond A:SER183>
0

> <HydrogenBond A:THR184>
0

> <HydrogenBond A:PHE186>
0

> <HydrogenBond A:ILE187>
0

> <HydrogenBond A:PRO190>
0

> <HydrogenBond A:TYR240>
0

> <HydrogenBond A:PHE243>
0

> <HydrogenBond A:SER244>
0

> <HydrogenBond A:PHE247>
0

> <HydrogenBond A:VAL251>
0

> <HydrogenBond A:SER254>
0

> <HydrogenBond A:GLU255>
0

> <HydrogenBond A:ARG256>
0

> <HydrogenBond A:LEU257>
0

> <HydrogenBond A:GLU258>
0

> <HydrogenBond A:GLU259>
0

> <HydrogenBond A:ILE262>
0

> <HydrogenBond A:SER265>
1

> <HydrogenBond A:GLN266>
0

> <HydrogenBond A:MET268>
0

> <HydrogenBond A:GLY269>
0

> <HydrogenBond A:PRO273>
0

> <Other A:SER69>
0

> <Other A:TRP89>
0

> <Other A:TYR159>
0

> <Other A:PHE172>
0

> <Other A:SER176>
0

> <Other A:SER265>
0

$$$$
78382153
  SciTegic09122300493D

 56 55  0  0  0  0            999 V2000
   14.9926    3.6944   -9.9938 O   0  0  0  1  0  0
   13.9602    5.9471   -8.2982 O   0  0  0  1  0  0
   11.1905    3.7149   -8.6794 O   0  0  0  1  0  0
    6.3880    8.4438    0.3435 O   0  5  0  1  0  0
    4.5620    9.4949    0.1870 O   0  0  0  1  0  0
   13.6412    4.1019   -9.8959 C   0  0  2  1  0  0
   13.2439    5.0300  -11.0704 C   0  0  0  1  0  0
   13.3546    4.6870   -8.4877 C   0  0  2  1  0  0
   12.6656    4.2529  -12.2662 C   0  0  0  1  0  0
   11.8539    4.8710   -8.2157 C   0  0  2  1  0  0
   11.1603    3.9779  -12.1099 C   0  0  0  1  0  0
    8.3899    7.9840   -3.9924 C   0  0  0  1  0  0
    7.4777    9.1907   -4.1093 C   0  0  0  1  0  0
    9.0607    7.4774   -5.2695 C   0  0  0  1  0  0
    6.6994    9.4106   -2.8082 C   0  0  0  1  0  0
   10.0702    6.3193   -5.0302 C   0  0  0  1  0  0
   11.4580    5.0149   -6.7651 C   0  0  0  1  0  0
   10.5348    3.3511  -13.3628 C   0  0  0  1  0  0
   11.0065    6.1560   -6.2141 C   0  0  0  1  0  0
    7.3789   10.3146   -1.7761 C   0  0  0  1  0  0
    6.4786   10.6524   -0.5771 C   0  0  0  1  0  0
    9.0288    3.1124  -13.2014 C   0  0  0  1  0  0
    5.7640    9.4402    0.0337 C   0  0  0  1  0  0
   15.5741    4.4381   -9.9279 H   0  0
   14.8107    5.9502   -8.7103 H   0  0
   10.2550    3.8049   -8.5194 H   0  0
   13.0641    3.1800   -9.9793 H   0  0
   14.0916    5.6262  -11.4085 H   0  0
   12.5103    5.7646  -10.7411 H   0  0
   13.7478    3.9946   -7.7373 H   0  0
   13.2099    3.3169  -12.3984 H   0  0
   12.8363    4.8115  -13.1850 H   0  0
   11.5081    5.7440   -8.7810 H   0  0
   10.6384    4.9083  -11.8832 H   0  0
   10.9969    3.3227  -11.2535 H   0  0
    7.7555    7.1836   -3.6218 H   0  0
    9.1541    8.2283   -3.2553 H   0  0
    6.7571    9.0036   -4.8988 H   0  0
    8.0426   10.0786   -4.3726 H   0  0
    9.5804    8.3195   -5.7191 H   0  0
    8.2849    7.1744   -5.9675 H   0  0
    6.4210    8.4550   -2.3613 H   0  0
    5.7702    9.8835   -3.0608 H   0  0
    9.5354    5.3976   -4.8100 H   0  0
   10.6451    6.4652   -4.1200 H   0  0
   11.4282    4.0955   -6.2074 H   0  0
   10.7050    4.0021  -14.2213 H   0  0
   11.0310    2.4063  -13.5870 H   0  0
   11.1882    7.0701   -6.7527 H   0  0
    7.6550   11.2466   -2.2577 H   0  0
    8.3052    9.8776   -1.4261 H   0  0
    5.7151   11.3518   -0.8923 H   0  0
    7.0353   11.1598    0.2036 H   0  0
    8.5008    4.0500  -13.0230 H   0  0
    8.8242    2.4472  -12.3619 H   0  0
    8.6078    2.6582  -14.0987 H   0  0
  1  6  1  0
  2  8  1  0
  3 10  1  0
  4 23  1  0
  5 23  2  0
  6  7  1  0
  6  8  1  0
  7  9  1  0
  8 10  1  0
  9 11  1  0
 10 17  1  0
 11 18  1  0
 12 13  1  0
 12 14  1  0
 13 15  1  0
 14 16  1  0
 15 20  1  0
 16 19  1  0
 17 19  2  0
 18 22  1  0
 20 21  1  0
 21 23  1  0
  1 24  1  0
  2 25  1  0
  3 26  1  0
  6 27  1  0
  7 28  1  0
  7 29  1  0
  8 30  1  0
  9 31  1  0
  9 32  1  0
 10 33  1  0
 11 34  1  0
 11 35  1  0
 12 36  1  0
 12 37  1  0
 13 38  1  0
 13 39  1  0
 14 40  1  0
 14 41  1  0
 15 42  1  0
 15 43  1  0
 16 44  1  0
 16 45  1  0
 17 46  1  0
 18 47  1  0
 18 48  1  0
 19 49  1  0
 20 50  1  0
 20 51  1  0
 21 52  1  0
 21 53  1  0
 22 54  1  0
 22 55  1  0
 22 56  1  0
M  CHG  1   4  -1
M  END
> <Name>
78382153

> <Binding Energy>
-52.5686

> <Ligand Energy>
28.1352

> <Protein Energy>
-7801.1566

> <Complex Energy>
-7825.59

> <Complex Entropy>
-31.4823

> <Protein Entropy>
-31.4717

> <Ligand Entropy>
-20.1973

> <Entropic Energy>
20.1867

> <AbsoluteEnergy>
30.2878

> <ConfNumber>
146

> <Ionization pH>
7.5

> <IonizationIndex>
1

> <MOL_NUMBER>
900

> <NumberOfIonizations>
1

> <NumberOfStereoisomers>
16

> <NumberOfTautomers>
1

> <PUBCHEM_ATOM_DEF_STEREO_COUNT>
0

> <PUBCHEM_ATOM_UDEF_STEREO_COUNT>
3

> <PUBCHEM_BONDANNOTATIONS>
6  1  3
17  19  1
8  2  3
10  3  3

> <PUBCHEM_BOND_DEF_STEREO_COUNT>
0

> <PUBCHEM_BOND_UDEF_STEREO_COUNT>
1

> <PUBCHEM_CACTVS_COMPLEXITY>
317

> <PUBCHEM_CACTVS_HBOND_ACCEPTOR>
5

> <PUBCHEM_CACTVS_HBOND_DONOR>
4

> <PUBCHEM_CACTVS_ROTATABLE_BOND>
15

> <PUBCHEM_CACTVS_SUBSKEYS>
AAADcfB4OAAAAAAAAAAAAAAAAAAAAAAAAAAAAAAAAAAAAAAAAAAAGgAACAAACBSggAICCAAAAgCIACDSCAAAAAAgAAAICAEAAAgBFBIAAQAAUAAFwAAJEAOIyKCAAAAAAAAAAAAAAAAAAAAAAAAAAAAAAA==

> <PUBCHEM_CACTVS_TAUTO_COUNT>
-1

> <PUBCHEM_CACTVS_TPSA>
98

> <PUBCHEM_COMPONENT_COUNT>
1

> <PUBCHEM_COMPOUND_CANONICALIZED>
1

> <PUBCHEM_COMPOUND_CID>
78382153

> <PUBCHEM_COORDINATE_TYPE>
1
5
255

> <PUBCHEM_EXACT_MASS>
330.24062418

> <PUBCHEM_HEAVY_ATOM_COUNT>
23

> <PUBCHEM_ISOTOPIC_ATOM_COUNT>
0

> <PUBCHEM_IUPAC_CAS_NAME>
11,12,13-trihydroxy-9-octadecenoic acid

> <PUBCHEM_IUPAC_INCHI>
InChI=1S/C18H34O5/c1-2-3-9-12-15(19)18(23)16(20)13-10-7-5-4-6-8-11-14-17(21)22/h10,13,15-16,18-20,23H,2-9,11-12,14H2,1H3,(H,21,22)

> <PUBCHEM_IUPAC_INCHIKEY>
WWLVUQOGFYZQHT-UHFFFAOYSA-N

> <PUBCHEM_IUPAC_NAME>
11,12,13-trihydroxyoctadec-9-enoic acid

> <PUBCHEM_IUPAC_NAME_MARKUP>
11,12,13-trihydroxyoctadec-9-enoic acid

> <PUBCHEM_IUPAC_OPENEYE_NAME>
11,12,13-trihydroxyoctadec-9-enoic acid

> <PUBCHEM_IUPAC_SYSTEMATIC_NAME>
11,12,13-tris(oxidanyl)octadec-9-enoic acid

> <PUBCHEM_IUPAC_TRADITIONAL_NAME>
11,12,13-trihydroxyoctadec-9-enoic acid

> <PUBCHEM_MOLECULAR_FORMULA>
C18H34O5

> <PUBCHEM_MOLECULAR_WEIGHT>
330.5

> <PUBCHEM_MONOISOTOPIC_WEIGHT>
330.24062418

> <PUBCHEM_OPENEYE_CAN_SMILES>
CCCCCC(C(C(C=CCCCCCCCC(=O)O)O)O)O

> <PUBCHEM_OPENEYE_ISO_SMILES>
CCCCCC(C(C(C=CCCCCCCCC(=O)O)O)O)O

> <PUBCHEM_TOTAL_CHARGE>
0

> <PUBCHEM_XLOGP3_AA>
3.5

> <RelativeEnergy>
16.3704

> <StereoisomerIndex>
16

> <TautomerIndex>
1

> <POSE_NUMBER>
10

> <LibDockScore>
111.0861

> <HotSpots>
7.21,9.27,-3.25,A,45,15
8.01,10.07,-2.25,A,50,20
9.21,3.67,-12.86,A,26,22

> <-In-Situ Starting Energy>
-10769.4686

> <-In-Situ Final Energy>
2.0975431

> <In-Situ Gradient>
0.0009620630889

> <Favorable Total>
6

> <Unfavorable Total>
0

> <Charge Total>
0

> <Hydrophobic Total>
2

> <HydrogenBond Total>
4

> <Other Total>
0

> <Favorable A:LYS6>
0

> <Favorable A:ARG55>
0

> <Favorable A:LEU58>
0

> <Favorable A:LEU61>
0

> <Favorable A:ILE62>
0

> <Favorable A:GLY64>
0

> <Favorable A:SER65>
0

> <Favorable A:TRP66>
0

> <Favorable A:SER69>
0

> <Favorable A:VAL70>
0

> <Favorable A:PRO73>
0

> <Favorable A:ALA74>
0

> <Favorable A:PHE76>
0

> <Favorable A:ALA77>
0

> <Favorable A:THR78>
0

> <Favorable A:GLU79>
0

> <Favorable A:PHE82>
0

> <Favorable A:ARG83>
0

> <Favorable A:LEU85>
1

> <Favorable A:THR86>
0

> <Favorable A:TRP89>
3

> <Favorable A:THR90>
0

> <Favorable A:ASN93>
0

> <Favorable A:HIS94>
1

> <Favorable A:SER96>
0

> <Favorable A:VAL97>
0

> <Favorable A:TRP98>
0

> <Favorable A:PHE140>
0

> <Favorable A:LEU141>
0

> <Favorable A:ASN144>
0

> <Favorable A:ILE148>
0

> <Favorable A:ILE150>
0

> <Favorable A:HIS151>
0

> <Favorable A:ILE152>
0

> <Favorable A:ALA154>
0

> <Favorable A:SER155>
0

> <Favorable A:ILE156>
0

> <Favorable A:GLY158>
0

> <Favorable A:TYR159>
0

> <Favorable A:ARG160>
0

> <Favorable A:ARG161>
0

> <Favorable A:ASN162>
0

> <Favorable A:LYS163>
0

> <Favorable A:SER167>
0

> <Favorable A:ASP168>
0

> <Favorable A:SER169>
0

> <Favorable A:ASN171>
0

> <Favorable A:PHE172>
0

> <Favorable A:THR173>
0

> <Favorable A:ARG174>
0

> <Favorable A:PHE175>
0

> <Favorable A:SER176>
0

> <Favorable A:SER177>
0

> <Favorable A:LEU178>
0

> <Favorable A:ILE179>
0

> <Favorable A:VAL180>
0

> <Favorable A:LEU181>
0

> <Favorable A:SER183>
0

> <Favorable A:THR184>
0

> <Favorable A:PHE186>
0

> <Favorable A:ILE187>
1

> <Favorable A:PHE188>
0

> <Favorable A:ILE189>
0

> <Favorable A:PRO190>
0

> <Favorable A:PHE191>
0

> <Favorable A:TYR240>
0

> <Favorable A:PHE243>
0

> <Favorable A:SER244>
0

> <Favorable A:PHE247>
0

> <Favorable A:PHE248>
0

> <Favorable A:VAL251>
0

> <Favorable A:TRP252>
0

> <Favorable A:SER254>
0

> <Favorable A:GLU255>
0

> <Favorable A:ARG256>
0

> <Favorable A:LEU257>
0

> <Favorable A:GLU258>
0

> <Favorable A:GLU259>
0

> <Favorable A:LEU261>
0

> <Favorable A:ILE262>
0

> <Favorable A:ILE263>
0

> <Favorable A:SER265>
0

> <Favorable A:GLN266>
0

> <Favorable A:MET268>
0

> <Favorable A:GLY269>
0

> <Favorable A:TYR272>
0

> <Favorable A:PRO273>
0

> <Unfavorable A:ARG55>
0

> <Unfavorable A:PRO73>
0

> <Unfavorable A:PHE76>
0

> <Unfavorable A:GLU79>
0

> <Unfavorable A:ARG83>
0

> <Unfavorable A:THR86>
0

> <Unfavorable A:TRP89>
0

> <Unfavorable A:THR90>
0

> <Unfavorable A:ASN93>
0

> <Unfavorable A:TRP98>
0

> <Unfavorable A:ASN144>
0

> <Unfavorable A:SER155>
0

> <Unfavorable A:GLY158>
0

> <Unfavorable A:TYR159>
0

> <Unfavorable A:ASN162>
0

> <Unfavorable A:ASP168>
0

> <Unfavorable A:ASN171>
0

> <Unfavorable A:THR173>
0

> <Unfavorable A:ARG174>
0

> <Unfavorable A:SER183>
0

> <Unfavorable A:THR184>
0

> <Unfavorable A:PHE186>
0

> <Unfavorable A:SER244>
0

> <Unfavorable A:SER254>
0

> <Unfavorable A:GLU255>
0

> <Unfavorable A:SER265>
0

> <Unfavorable A:GLN266>
0

> <Unfavorable A:GLY269>
0

> <Charge A:ARG55>
0

> <Charge A:PHE76>
0

> <Charge A:GLU79>
0

> <Charge A:PHE82>
0

> <Charge A:ARG83>
0

> <Charge A:TRP89>
0

> <Charge A:HIS94>
0

> <Charge A:TRP98>
0

> <Charge A:TYR159>
0

> <Charge A:ARG161>
0

> <Charge A:LYS163>
0

> <Charge A:ASP168>
0

> <Charge A:PHE172>
0

> <Charge A:ARG174>
0

> <Charge A:PHE175>
0

> <Charge A:PHE188>
0

> <Charge A:PHE247>
0

> <Charge A:PHE248>
0

> <Hydrophobic A:LEU58>
0

> <Hydrophobic A:LEU61>
0

> <Hydrophobic A:ILE62>
0

> <Hydrophobic A:TRP66>
0

> <Hydrophobic A:VAL70>
0

> <Hydrophobic A:PRO73>
0

> <Hydrophobic A:ALA74>
0

> <Hydrophobic A:PHE76>
0

> <Hydrophobic A:ALA77>
0

> <Hydrophobic A:THR78>
0

> <Hydrophobic A:PHE82>
0

> <Hydrophobic A:ARG83>
0

> <Hydrophobic A:LEU85>
1

> <Hydrophobic A:TRP89>
1

> <Hydrophobic A:THR90>
0

> <Hydrophobic A:ASN93>
0

> <Hydrophobic A:HIS94>
0

> <Hydrophobic A:VAL97>
0

> <Hydrophobic A:TRP98>
0

> <Hydrophobic A:PHE140>
0

> <Hydrophobic A:LEU141>
0

> <Hydrophobic A:ILE148>
0

> <Hydrophobic A:ILE150>
0

> <Hydrophobic A:HIS151>
0

> <Hydrophobic A:ILE152>
0

> <Hydrophobic A:ALA154>
0

> <Hydrophobic A:SER155>
0

> <Hydrophobic A:ILE156>
0

> <Hydrophobic A:GLY158>
0

> <Hydrophobic A:TYR159>
0

> <Hydrophobic A:ARG160>
0

> <Hydrophobic A:ARG161>
0

> <Hydrophobic A:ASP168>
0

> <Hydrophobic A:ASN171>
0

> <Hydrophobic A:PHE172>
0

> <Hydrophobic A:ARG174>
0

> <Hydrophobic A:PHE175>
0

> <Hydrophobic A:LEU178>
0

> <Hydrophobic A:ILE179>
0

> <Hydrophobic A:VAL180>
0

> <Hydrophobic A:LEU181>
0

> <Hydrophobic A:PHE186>
0

> <Hydrophobic A:ILE187>
0

> <Hydrophobic A:PHE188>
0

> <Hydrophobic A:ILE189>
0

> <Hydrophobic A:PRO190>
0

> <Hydrophobic A:PHE191>
0

> <Hydrophobic A:TYR240>
0

> <Hydrophobic A:PHE243>
0

> <Hydrophobic A:PHE247>
0

> <Hydrophobic A:PHE248>
0

> <Hydrophobic A:VAL251>
0

> <Hydrophobic A:TRP252>
0

> <Hydrophobic A:SER254>
0

> <Hydrophobic A:LEU261>
0

> <Hydrophobic A:ILE262>
0

> <Hydrophobic A:ILE263>
0

> <Hydrophobic A:TYR272>
0

> <Hydrophobic A:PRO273>
0

> <HydrogenBond A:LYS6>
0

> <HydrogenBond A:ARG55>
0

> <HydrogenBond A:GLY64>
0

> <HydrogenBond A:SER65>
0

> <HydrogenBond A:TRP66>
0

> <HydrogenBond A:SER69>
0

> <HydrogenBond A:PRO73>
0

> <HydrogenBond A:ALA74>
0

> <HydrogenBond A:PHE76>
0

> <HydrogenBond A:ALA77>
0

> <HydrogenBond A:THR78>
0

> <HydrogenBond A:GLU79>
0

> <HydrogenBond A:PHE82>
0

> <HydrogenBond A:ARG83>
0

> <HydrogenBond A:LEU85>
0

> <HydrogenBond A:THR86>
0

> <HydrogenBond A:TRP89>
2

> <HydrogenBond A:THR90>
0

> <HydrogenBond A:ASN93>
0

> <HydrogenBond A:HIS94>
1

> <HydrogenBond A:SER96>
0

> <HydrogenBond A:TRP98>
0

> <HydrogenBond A:ASN144>
0

> <HydrogenBond A:HIS151>
0

> <HydrogenBond A:ILE152>
0

> <HydrogenBond A:ALA154>
0

> <HydrogenBond A:SER155>
0

> <HydrogenBond A:ILE156>
0

> <HydrogenBond A:GLY158>
0

> <HydrogenBond A:TYR159>
0

> <HydrogenBond A:ASN162>
0

> <HydrogenBond A:LYS163>
0

> <HydrogenBond A:SER167>
0

> <HydrogenBond A:ASP168>
0

> <HydrogenBond A:SER169>
0

> <HydrogenBond A:ASN171>
0

> <HydrogenBond A:PHE172>
0

> <HydrogenBond A:THR173>
0

> <HydrogenBond A:ARG174>
0

> <HydrogenBond A:PHE175>
0

> <HydrogenBond A:SER176>
0

> <HydrogenBond A:SER177>
0

> <HydrogenBond A:ILE179>
0

> <HydrogenBond A:VAL180>
0

> <HydrogenBond A:SER183>
0

> <HydrogenBond A:THR184>
0

> <HydrogenBond A:PHE186>
0

> <HydrogenBond A:ILE187>
1

> <HydrogenBond A:PRO190>
0

> <HydrogenBond A:TYR240>
0

> <HydrogenBond A:PHE243>
0

> <HydrogenBond A:SER244>
0

> <HydrogenBond A:PHE247>
0

> <HydrogenBond A:VAL251>
0

> <HydrogenBond A:SER254>
0

> <HydrogenBond A:GLU255>
0

> <HydrogenBond A:ARG256>
0

> <HydrogenBond A:LEU257>
0

> <HydrogenBond A:GLU258>
0

> <HydrogenBond A:GLU259>
0

> <HydrogenBond A:ILE262>
0

> <HydrogenBond A:SER265>
0

> <HydrogenBond A:GLN266>
0

> <HydrogenBond A:MET268>
0

> <HydrogenBond A:GLY269>
0

> <HydrogenBond A:PRO273>
0

> <Other A:SER69>
0

> <Other A:TRP89>
0

> <Other A:TYR159>
0

> <Other A:PHE172>
0

> <Other A:SER176>
0

> <Other A:SER265>
0

$$$$
102416835
  SciTegic09122300493D

 24 25  0  0  0  0            999 V2000
    8.7872    9.2832   -3.6541 O   0  0  0  1  0  0
    6.4627   12.7692   -0.4040 O   0  0  0  1  0  0
    6.2695   10.8811    1.3678 O   0  0  0  1  0  0
    6.4364    9.5170   -4.0476 C   0  0  0  1  0  0
    6.4212    9.8214   -2.5885 C   0  0  0  1  0  0
    7.7070    8.8479   -4.2985 C   0  0  0  1  0  0
    6.5834   11.1332   -2.1926 C   0  0  0  1  0  0
    6.2676    8.8148   -1.6382 C   0  0  0  1  0  0
    6.5143   11.4586   -0.8536 C   0  0  0  1  0  0
    7.9585    7.7253   -5.0891 C   0  0  0  1  0  0
    6.2078    9.1404   -0.2927 C   0  0  0  1  0  0
    6.3333   10.4653    0.0746 C   0  0  0  1  0  0
    9.2336    7.3486   -4.7463 C   0  0  0  1  0  0
    9.5819    8.2366   -3.7229 C   0  0  0  1  0  0
    6.8005   13.3965   -1.0304 H   0  0
    6.9862   11.5048    1.4673 H   0  0
    5.6961    8.7853   -4.3055 H   0  0
    6.3684   10.4184   -4.6530 H   0  0
    6.6530   11.8869   -2.9581 H   0  0
    6.1603    7.7836   -1.9426 H   0  0
    7.3254    7.2163   -5.7949 H   0  0
    6.0630    8.3803    0.4602 H   0  0
    9.8145    6.5300   -5.1437 H   0  0
   10.4029    8.0794   -3.0640 H   0  0
  1  6  1  0
  1 14  1  0
  2  9  1  0
  3 12  1  0
  4  5  1  0
  4  6  1  0
  5  7  2  0
  5  8  1  0
  6 10  2  0
  7  9  1  0
  8 11  2  0
  9 12  2  0
 10 13  1  0
 11 12  1  0
 13 14  2  0
  2 15  1  0
  3 16  1  0
  4 17  1  0
  4 18  1  0
  7 19  1  0
  8 20  1  0
 10 21  1  0
 11 22  1  0
 13 23  1  0
 14 24  1  0
M  END
> <Name>
102416835

> <Binding Energy>
-35.0518

> <Ligand Energy>
2.4303

> <Protein Energy>
-7801.1566

> <Complex Energy>
-7833.7782

> <Complex Entropy>
-31.4774

> <Protein Entropy>
-31.4717

> <Ligand Entropy>
-18.0876

> <Entropic Energy>
18.0819

> <AbsoluteEnergy>
14.047

> <ConfNumber>
7

> <Ionization pH>
7.5

> <IonizationIndex>
1

> <MOL_NUMBER>
902

> <NumberOfIonizations>
1

> <NumberOfStereoisomers>
1

> <NumberOfTautomers>
1

> <PUBCHEM_ATOM_DEF_STEREO_COUNT>
0

> <PUBCHEM_ATOM_UDEF_STEREO_COUNT>
0

> <PUBCHEM_BONDANNOTATIONS>
1  14  8
1  6  8
10  13  8
11  12  8
13  14  8
5  7  8
5  8  8
6  10  8
7  9  8
8  11  8
9  12  8

> <PUBCHEM_BOND_DEF_STEREO_COUNT>
0

> <PUBCHEM_BOND_UDEF_STEREO_COUNT>
0

> <PUBCHEM_CACTVS_COMPLEXITY>
183

> <PUBCHEM_CACTVS_HBOND_ACCEPTOR>
3

> <PUBCHEM_CACTVS_HBOND_DONOR>
2

> <PUBCHEM_CACTVS_ROTATABLE_BOND>
2

> <PUBCHEM_CACTVS_SUBSKEYS>
AAADccBwMAAAAAAAAAAAAAAAAAAAASAAAAAwAAAAAAAAAAABwAAAGgAACAAADASgmAIwBoAABkCIAqhSgAACCAAkIAAIiAEGiMgNJjKGNRqCeSGkwBEJuYeI7PzOIAABAAAAQABAAAIAAACAAAAAAAAAAA==

> <PUBCHEM_CACTVS_TAUTO_COUNT>
-1

> <PUBCHEM_CACTVS_TPSA>
53.6

> <PUBCHEM_COMPONENT_COUNT>
1

> <PUBCHEM_COMPOUND_CANONICALIZED>
1

> <PUBCHEM_COMPOUND_CID>
102416835

> <PUBCHEM_COORDINATE_TYPE>
1
5
255

> <PUBCHEM_EXACT_MASS>
190.062994177

> <PUBCHEM_HEAVY_ATOM_COUNT>
14

> <PUBCHEM_ISOTOPIC_ATOM_COUNT>
0

> <PUBCHEM_IUPAC_CAS_NAME>
4-(2-furanylmethyl)benzene-1,2-diol

> <PUBCHEM_IUPAC_INCHI>
InChI=1S/C11H10O3/c12-10-4-3-8(7-11(10)13)6-9-2-1-5-14-9/h1-5,7,12-13H,6H2

> <PUBCHEM_IUPAC_INCHIKEY>
YTLNQLBYXROIRM-UHFFFAOYSA-N

> <PUBCHEM_IUPAC_NAME>
4-(furan-2-ylmethyl)benzene-1,2-diol

> <PUBCHEM_IUPAC_NAME_MARKUP>
4-(furan-2-ylmethyl)benzene-1,2-diol

> <PUBCHEM_IUPAC_OPENEYE_NAME>
4-(2-furylmethyl)benzene-1,2-diol

> <PUBCHEM_IUPAC_SYSTEMATIC_NAME>
4-(furan-2-ylmethyl)benzene-1,2-diol

> <PUBCHEM_IUPAC_TRADITIONAL_NAME>
4-(2-furfuryl)pyrocatechol

> <PUBCHEM_MOLECULAR_FORMULA>
C11H10O3

> <PUBCHEM_MOLECULAR_WEIGHT>
190.19

> <PUBCHEM_MONOISOTOPIC_WEIGHT>
190.062994177

> <PUBCHEM_OPENEYE_CAN_SMILES>
C1=COC(=C1)CC2=CC(=C(C=C2)O)O

> <PUBCHEM_OPENEYE_ISO_SMILES>
C1=COC(=C1)CC2=CC(=C(C=C2)O)O

> <PUBCHEM_TOTAL_CHARGE>
0

> <PUBCHEM_XLOGP3_AA>
2.2

> <RelativeEnergy>
0.0608423

> <StereoisomerIndex>
1

> <TautomerIndex>
1

> <POSE_NUMBER>
1

> <LibDockScore>
96.6793

> <HotSpots>
6.61,11.87,-1.46,A,53,7
5.81,9.67,0.14,A,68,11
8.41,8.07,-4.86,A,38,13

> <-In-Situ Starting Energy>
-96780.9441

> <-In-Situ Final Energy>
-4.29102904

> <In-Situ Gradient>
0.0007765278762

> <Favorable Total>
7

> <Unfavorable Total>
0

> <Charge Total>
0

> <Hydrophobic Total>
4

> <HydrogenBond Total>
3

> <Other Total>
0

> <Favorable A:LYS6>
0

> <Favorable A:ARG55>
0

> <Favorable A:LEU58>
0

> <Favorable A:LEU61>
0

> <Favorable A:ILE62>
0

> <Favorable A:GLY64>
0

> <Favorable A:SER65>
0

> <Favorable A:TRP66>
0

> <Favorable A:SER69>
0

> <Favorable A:VAL70>
0

> <Favorable A:PRO73>
0

> <Favorable A:ALA74>
0

> <Favorable A:PHE76>
0

> <Favorable A:ALA77>
0

> <Favorable A:THR78>
0

> <Favorable A:GLU79>
0

> <Favorable A:PHE82>
0

> <Favorable A:ARG83>
0

> <Favorable A:LEU85>
0

> <Favorable A:THR86>
0

> <Favorable A:TRP89>
0

> <Favorable A:THR90>
0

> <Favorable A:ASN93>
1

> <Favorable A:HIS94>
0

> <Favorable A:SER96>
0

> <Favorable A:VAL97>
1

> <Favorable A:TRP98>
0

> <Favorable A:PHE140>
0

> <Favorable A:LEU141>
0

> <Favorable A:ASN144>
1

> <Favorable A:ILE148>
0

> <Favorable A:ILE150>
0

> <Favorable A:HIS151>
0

> <Favorable A:ILE152>
0

> <Favorable A:ALA154>
0

> <Favorable A:SER155>
0

> <Favorable A:ILE156>
0

> <Favorable A:GLY158>
0

> <Favorable A:TYR159>
0

> <Favorable A:ARG160>
0

> <Favorable A:ARG161>
0

> <Favorable A:ASN162>
0

> <Favorable A:LYS163>
0

> <Favorable A:SER167>
0

> <Favorable A:ASP168>
0

> <Favorable A:SER169>
0

> <Favorable A:ASN171>
0

> <Favorable A:PHE172>
0

> <Favorable A:THR173>
0

> <Favorable A:ARG174>
0

> <Favorable A:PHE175>
0

> <Favorable A:SER176>
0

> <Favorable A:SER177>
0

> <Favorable A:LEU178>
0

> <Favorable A:ILE179>
0

> <Favorable A:VAL180>
0

> <Favorable A:LEU181>
0

> <Favorable A:SER183>
1

> <Favorable A:THR184>
0

> <Favorable A:PHE186>
1

> <Favorable A:ILE187>
2

> <Favorable A:PHE188>
0

> <Favorable A:ILE189>
0

> <Favorable A:PRO190>
0

> <Favorable A:PHE191>
0

> <Favorable A:TYR240>
0

> <Favorable A:PHE243>
0

> <Favorable A:SER244>
0

> <Favorable A:PHE247>
0

> <Favorable A:PHE248>
0

> <Favorable A:VAL251>
0

> <Favorable A:TRP252>
0

> <Favorable A:SER254>
0

> <Favorable A:GLU255>
0

> <Favorable A:ARG256>
0

> <Favorable A:LEU257>
0

> <Favorable A:GLU258>
0

> <Favorable A:GLU259>
0

> <Favorable A:LEU261>
0

> <Favorable A:ILE262>
0

> <Favorable A:ILE263>
0

> <Favorable A:SER265>
0

> <Favorable A:GLN266>
0

> <Favorable A:MET268>
0

> <Favorable A:GLY269>
0

> <Favorable A:TYR272>
0

> <Favorable A:PRO273>
0

> <Unfavorable A:ARG55>
0

> <Unfavorable A:PRO73>
0

> <Unfavorable A:PHE76>
0

> <Unfavorable A:GLU79>
0

> <Unfavorable A:ARG83>
0

> <Unfavorable A:THR86>
0

> <Unfavorable A:TRP89>
0

> <Unfavorable A:THR90>
0

> <Unfavorable A:ASN93>
0

> <Unfavorable A:TRP98>
0

> <Unfavorable A:ASN144>
0

> <Unfavorable A:SER155>
0

> <Unfavorable A:GLY158>
0

> <Unfavorable A:TYR159>
0

> <Unfavorable A:ASN162>
0

> <Unfavorable A:ASP168>
0

> <Unfavorable A:ASN171>
0

> <Unfavorable A:THR173>
0

> <Unfavorable A:ARG174>
0

> <Unfavorable A:SER183>
0

> <Unfavorable A:THR184>
0

> <Unfavorable A:PHE186>
0

> <Unfavorable A:SER244>
0

> <Unfavorable A:SER254>
0

> <Unfavorable A:GLU255>
0

> <Unfavorable A:SER265>
0

> <Unfavorable A:GLN266>
0

> <Unfavorable A:GLY269>
0

> <Charge A:ARG55>
0

> <Charge A:PHE76>
0

> <Charge A:GLU79>
0

> <Charge A:PHE82>
0

> <Charge A:ARG83>
0

> <Charge A:TRP89>
0

> <Charge A:HIS94>
0

> <Charge A:TRP98>
0

> <Charge A:TYR159>
0

> <Charge A:ARG161>
0

> <Charge A:LYS163>
0

> <Charge A:ASP168>
0

> <Charge A:PHE172>
0

> <Charge A:ARG174>
0

> <Charge A:PHE175>
0

> <Charge A:PHE188>
0

> <Charge A:PHE247>
0

> <Charge A:PHE248>
0

> <Hydrophobic A:LEU58>
0

> <Hydrophobic A:LEU61>
0

> <Hydrophobic A:ILE62>
0

> <Hydrophobic A:TRP66>
0

> <Hydrophobic A:VAL70>
0

> <Hydrophobic A:PRO73>
0

> <Hydrophobic A:ALA74>
0

> <Hydrophobic A:PHE76>
0

> <Hydrophobic A:ALA77>
0

> <Hydrophobic A:THR78>
0

> <Hydrophobic A:PHE82>
0

> <Hydrophobic A:ARG83>
0

> <Hydrophobic A:LEU85>
0

> <Hydrophobic A:TRP89>
0

> <Hydrophobic A:THR90>
0

> <Hydrophobic A:ASN93>
1

> <Hydrophobic A:HIS94>
0

> <Hydrophobic A:VAL97>
1

> <Hydrophobic A:TRP98>
0

> <Hydrophobic A:PHE140>
0

> <Hydrophobic A:LEU141>
0

> <Hydrophobic A:ILE148>
0

> <Hydrophobic A:ILE150>
0

> <Hydrophobic A:HIS151>
0

> <Hydrophobic A:ILE152>
0

> <Hydrophobic A:ALA154>
0

> <Hydrophobic A:SER155>
0

> <Hydrophobic A:ILE156>
0

> <Hydrophobic A:GLY158>
0

> <Hydrophobic A:TYR159>
0

> <Hydrophobic A:ARG160>
0

> <Hydrophobic A:ARG161>
0

> <Hydrophobic A:ASP168>
0

> <Hydrophobic A:ASN171>
0

> <Hydrophobic A:PHE172>
0

> <Hydrophobic A:ARG174>
0

> <Hydrophobic A:PHE175>
0

> <Hydrophobic A:LEU178>
0

> <Hydrophobic A:ILE179>
0

> <Hydrophobic A:VAL180>
0

> <Hydrophobic A:LEU181>
0

> <Hydrophobic A:PHE186>
0

> <Hydrophobic A:ILE187>
2

> <Hydrophobic A:PHE188>
0

> <Hydrophobic A:ILE189>
0

> <Hydrophobic A:PRO190>
0

> <Hydrophobic A:PHE191>
0

> <Hydrophobic A:TYR240>
0

> <Hydrophobic A:PHE243>
0

> <Hydrophobic A:PHE247>
0

> <Hydrophobic A:PHE248>
0

> <Hydrophobic A:VAL251>
0

> <Hydrophobic A:TRP252>
0

> <Hydrophobic A:SER254>
0

> <Hydrophobic A:LEU261>
0

> <Hydrophobic A:ILE262>
0

> <Hydrophobic A:ILE263>
0

> <Hydrophobic A:TYR272>
0

> <Hydrophobic A:PRO273>
0

> <HydrogenBond A:LYS6>
0

> <HydrogenBond A:ARG55>
0

> <HydrogenBond A:GLY64>
0

> <HydrogenBond A:SER65>
0

> <HydrogenBond A:TRP66>
0

> <HydrogenBond A:SER69>
0

> <HydrogenBond A:PRO73>
0

> <HydrogenBond A:ALA74>
0

> <HydrogenBond A:PHE76>
0

> <HydrogenBond A:ALA77>
0

> <HydrogenBond A:THR78>
0

> <HydrogenBond A:GLU79>
0

> <HydrogenBond A:PHE82>
0

> <HydrogenBond A:ARG83>
0

> <HydrogenBond A:LEU85>
0

> <HydrogenBond A:THR86>
0

> <HydrogenBond A:TRP89>
0

> <HydrogenBond A:THR90>
0

> <HydrogenBond A:ASN93>
0

> <HydrogenBond A:HIS94>
0

> <HydrogenBond A:SER96>
0

> <HydrogenBond A:TRP98>
0

> <HydrogenBond A:ASN144>
1

> <HydrogenBond A:HIS151>
0

> <HydrogenBond A:ILE152>
0

> <HydrogenBond A:ALA154>
0

> <HydrogenBond A:SER155>
0

> <HydrogenBond A:ILE156>
0

> <HydrogenBond A:GLY158>
0

> <HydrogenBond A:TYR159>
0

> <HydrogenBond A:ASN162>
0

> <HydrogenBond A:LYS163>
0

> <HydrogenBond A:SER167>
0

> <HydrogenBond A:ASP168>
0

> <HydrogenBond A:SER169>
0

> <HydrogenBond A:ASN171>
0

> <HydrogenBond A:PHE172>
0

> <HydrogenBond A:THR173>
0

> <HydrogenBond A:ARG174>
0

> <HydrogenBond A:PHE175>
0

> <HydrogenBond A:SER176>
0

> <HydrogenBond A:SER177>
0

> <HydrogenBond A:ILE179>
0

> <HydrogenBond A:VAL180>
0

> <HydrogenBond A:SER183>
1

> <HydrogenBond A:THR184>
0

> <HydrogenBond A:PHE186>
1

> <HydrogenBond A:ILE187>
0

> <HydrogenBond A:PRO190>
0

> <HydrogenBond A:TYR240>
0

> <HydrogenBond A:PHE243>
0

> <HydrogenBond A:SER244>
0

> <HydrogenBond A:PHE247>
0

> <HydrogenBond A:VAL251>
0

> <HydrogenBond A:SER254>
0

> <HydrogenBond A:GLU255>
0

> <HydrogenBond A:ARG256>
0

> <HydrogenBond A:LEU257>
0

> <HydrogenBond A:GLU258>
0

> <HydrogenBond A:GLU259>
0

> <HydrogenBond A:ILE262>
0

> <HydrogenBond A:SER265>
0

> <HydrogenBond A:GLN266>
0

> <HydrogenBond A:MET268>
0

> <HydrogenBond A:GLY269>
0

> <HydrogenBond A:PRO273>
0

> <Other A:SER69>
0

> <Other A:TRP89>
0

> <Other A:TYR159>
0

> <Other A:PHE172>
0

> <Other A:SER176>
0

> <Other A:SER265>
0

$$$$
